  Page 1                                    Thu Jun 20 20:48:59 2019

  ******************************************************************
  *                           E P A N E T                          *
  *                   Hydraulic and Water Quality                  *
  *                   Analysis for Pipe Networks                   *
  *                         Version 2.00.12                        *
  ******************************************************************
  
  Analysis begun Thu Jun 20 20:48:59 2019

   
  Hydraulic Status:
  -----------------------------------------------------------------------
     0:00:00: Pump ~@Pump-2 changed by Tank T-1 control
     0:00:00: Pump ~@Pump-4 changed by Tank T-5 control
     0:00:00: Balancing the network:
              Trial  1: relative flow change = 1.785915
              Trial  2: relative flow change = 0.376832
              Trial  3: relative flow change = 0.088472
              Trial  4: relative flow change = 0.014869
              Trial  5: relative flow change = 0.003136
              Trial  6: relative flow change = 0.000991
              Trial  7: relative flow change = 0.000273
              Trial  8: relative flow change = 0.000088
     0:00:00: Balanced after 8 trials
     0:00:00: Reservoir R-1 is emptying
     0:00:00: Reservoir R-2 is filling
     0:00:00: Tank T-1 is emptying at 157.66 ft
     0:00:00: Tank T-2 is emptying at 129.25 ft
     0:00:00: Tank T-3 is filling at 133.25 ft
     0:00:00: Tank T-4 is filling at 145.98 ft
     0:00:00: Tank T-5 is filling at 141.20 ft
     0:00:00: Pump ~@Pump-2 closed
     0:00:00: Pump ~@Pump-4 closed
   
     1:00:00: Balancing the network:
              Trial  1: relative flow change = 0.463975
              Trial  2: relative flow change = 0.155221
              Trial  3: relative flow change = 0.037359
              Trial  4: relative flow change = 0.003591
              Trial  5: relative flow change = 0.000172
              Trial  6: relative flow change = 0.000004
     1:00:00: Balanced after 6 trials
   
     1:42:34: Pump ~@Pump-2 changed by Tank T-1 control
     1:42:34: Balancing the network:
              Trial  1: relative flow change = 0.377692
              Trial  2: relative flow change = 0.146021
              Trial  3: relative flow change = 0.064397
              Trial  4: relative flow change = 0.024413
              Trial  5: relative flow change = 0.008948
              Trial  6: relative flow change = 0.012755
              Trial  7: relative flow change = 0.024924
              Trial  8: relative flow change = 0.048218
              Trial  9: relative flow change = 0.089024
              Trial 10: relative flow change = 0.150735
              Trial 11: relative flow change = 0.208143
              Trial 12: relative flow change = 0.187154
              Trial 13: relative flow change = 0.091631
              Trial 14: relative flow change = 0.012894
              Trial 15: relative flow change = 0.000970
              Trial 16: relative flow change = 0.000073
     1:42:34: Balanced after 16 trials
     1:42:34: Reservoir R-2 is emptying
     1:42:34: Tank T-1 is filling at 137.66 ft
     1:42:34: Tank T-3 is emptying at 144.03 ft
     1:42:34: Pump ~@Pump-2 changed from closed to open
   
     2:00:00: Balancing the network:
              Trial  1: relative flow change = 0.140123
              Trial  2: relative flow change = 0.066775
              Trial  3: relative flow change = 0.015890
              Trial  4: relative flow change = 0.002740
              Trial  5: relative flow change = 0.000214
              Trial  6: relative flow change = 0.000007
     2:00:00: Balanced after 6 trials
     2:00:00: Tank T-1 is emptying at 138.06 ft
   
     2:13:12: Balancing the network:
              Trial  1: relative flow change = 0.020909
              Trial  2: relative flow change = 0.000420
              Pipe P-200 switched from open to closed
              Trial  3: relative flow change = 0.810192
              Trial  4: relative flow change = 0.196606
              Trial  5: relative flow change = 0.032643
              Trial  6: relative flow change = 0.001802
              Trial  7: relative flow change = 0.000092
     2:13:12: Balanced after 7 trials
     2:13:12: Tank T-1 is filling at 137.99 ft
     2:13:12: Tank T-3 is filling at 143.17 ft
     2:13:12: Tank T-5 is closed at 151.20 ft
     2:13:12: Pipe P-200 changed from open to temporarily closed
   
     3:00:00: Balancing the network:
              Trial  1: relative flow change = 0.114057
              Trial  2: relative flow change = 0.025708
              Trial  3: relative flow change = 0.006660
              Trial  4: relative flow change = 0.001021
              Trial  5: relative flow change = 0.000048
     3:00:00: Balanced after 5 trials
   
     4:00:00: Balancing the network:
              Trial  1: relative flow change = 0.072662
              Trial  2: relative flow change = 0.007697
              Trial  3: relative flow change = 0.000288
              Trial  4: relative flow change = 0.000004
     4:00:00: Balanced after 4 trials
   
     5:00:00: Balancing the network:
              Trial  1: relative flow change = 0.106756
              Trial  2: relative flow change = 0.007298
              Trial  3: relative flow change = 0.000349
              Trial  4: relative flow change = 0.000007
     5:00:00: Balanced after 4 trials
   
     6:00:00: Balancing the network:
              Trial  1: relative flow change = 0.144235
              Trial  2: relative flow change = 0.020498
              Trial  3: relative flow change = 0.001190
              Trial  4: relative flow change = 0.000043
     6:00:00: Balanced after 4 trials
   
     6:20:19: Balancing the network:
              Trial  1: relative flow change = 0.027228
              Trial  2: relative flow change = 0.002163
              Pipe P-384 switched from open to closed
              Pipe P-579 switched from open to closed
              Trial  3: relative flow change = 0.051206
              Trial  4: relative flow change = 0.005034
              Trial  5: relative flow change = 0.000234
              Trial  6: relative flow change = 0.000001
     6:20:19: Balanced after 6 trials
     6:20:19: Tank T-3 is closed at 148.25 ft
     6:20:19: Pipe P-384 changed from open to temporarily closed
     6:20:19: Pipe P-579 changed from open to temporarily closed
   
     7:00:00: Balancing the network:
              Trial  1: relative flow change = 0.299156
              Trial  2: relative flow change = 0.064375
              Trial  3: relative flow change = 0.008706
              Trial  4: relative flow change = 0.001029
              Trial  5: relative flow change = 0.000145
              Trial  6: relative flow change = 0.000017
     7:00:00: Balanced after 6 trials
     7:00:00: Tank T-1 is emptying at 143.97 ft
   
     8:00:00: Balancing the network:
              Trial  1: relative flow change = 0.225200
              Trial  2: relative flow change = 0.048733
              Trial  3: relative flow change = 0.007633
              Trial  4: relative flow change = 0.000983
              Trial  5: relative flow change = 0.000045
     8:00:00: Balanced after 5 trials
   
     9:00:00: Balancing the network:
              Trial  1: relative flow change = 0.137813
              Trial  2: relative flow change = 0.086243
              Pipe P-384 switched from closed to open
              Pipe P-579 switched from closed to open
              Trial  3: relative flow change = 0.368119
              Trial  4: relative flow change = 0.139216
              Trial  5: relative flow change = 0.038000
              Trial  6: relative flow change = 0.004395
              Trial  7: relative flow change = 0.000139
              Trial  8: relative flow change = 0.000003
     9:00:00: Balanced after 8 trials
     9:00:00: Tank T-1 is filling at 141.70 ft
     9:00:00: Tank T-3 is emptying at 148.25 ft
     9:00:00: Pipe P-384 changed from temporarily closed to open
     9:00:00: Pipe P-579 changed from temporarily closed to open
   
    10:00:00: Balancing the network:
              Trial  1: relative flow change = 0.418332
              Trial  2: relative flow change = 0.158343
              Trial  3: relative flow change = 0.035099
              Trial  4: relative flow change = 0.003312
              Trial  5: relative flow change = 0.000447
              Trial  6: relative flow change = 0.000033
    10:00:00: Balanced after 6 trials
    10:00:00: Tank T-1 is emptying at 142.57 ft
    10:00:00: Tank T-3 is filling at 145.63 ft
    10:00:00: Tank T-4 is emptying at 155.29 ft
   
    10:46:18: Balancing the network:
              Trial  1: relative flow change = 0.492779
              Trial  2: relative flow change = 0.531050
              Trial  3: relative flow change = 0.329005
              Trial  4: relative flow change = 0.124593
              Trial  5: relative flow change = 0.036536
              Trial  6: relative flow change = 0.009094
              Trial  7: relative flow change = 0.000897
              Trial  8: relative flow change = 0.000012
    10:46:18: Balanced after 8 trials
    10:46:18: Tank T-1 is filling at 140.08 ft
    10:46:18: Tank T-3 is emptying at 148.25 ft
    10:46:18: Tank T-4 is filling at 154.61 ft
   
    11:00:00: Balancing the network:
              Trial  1: relative flow change = 0.108620
              Trial  2: relative flow change = 0.021725
              Trial  3: relative flow change = 0.001697
              Trial  4: relative flow change = 0.000099
    11:00:00: Balanced after 4 trials
    11:00:00: Tank T-4 is emptying at 154.62 ft
   
    12:00:00: Balancing the network:
              Trial  1: relative flow change = 0.410022
              Trial  2: relative flow change = 0.231314
              Trial  3: relative flow change = 0.067384
              Trial  4: relative flow change = 0.007916
              Trial  5: relative flow change = 0.000214
              Trial  6: relative flow change = 0.000003
    12:00:00: Balanced after 6 trials
    12:00:00: Tank T-1 is emptying at 141.64 ft
    12:00:00: Tank T-3 is filling at 144.72 ft
   
    13:00:00: Balancing the network:
              Trial  1: relative flow change = 0.611904
              Trial  2: relative flow change = 0.382418
              Trial  3: relative flow change = 0.162637
              Trial  4: relative flow change = 0.033361
              Trial  5: relative flow change = 0.002511
              Trial  6: relative flow change = 0.000141
              Trial  7: relative flow change = 0.000009
    13:00:00: Balanced after 7 trials
    13:00:00: Tank T-1 is filling at 138.50 ft
    13:00:00: Tank T-3 is emptying at 148.12 ft
    13:00:00: Tank T-4 is filling at 153.47 ft
   
    14:00:00: Balancing the network:
              Trial  1: relative flow change = 0.604907
              Trial  2: relative flow change = 0.696579
              Trial  3: relative flow change = 0.542326
              Trial  4: relative flow change = 0.272683
              Trial  5: relative flow change = 0.085768
              Trial  6: relative flow change = 0.011589
              Trial  7: relative flow change = 0.000548
              Trial  8: relative flow change = 0.000051
    14:00:00: Balanced after 8 trials
    14:00:00: Tank T-1 is emptying at 141.43 ft
    14:00:00: Tank T-3 is filling at 142.99 ft
    14:00:00: Tank T-4 is emptying at 153.71 ft
   
    15:00:00: Balancing the network:
              Trial  1: relative flow change = 0.651953
              Trial  2: relative flow change = 0.628987
              Trial  3: relative flow change = 0.445394
              Trial  4: relative flow change = 0.190010
              Trial  5: relative flow change = 0.045327
              Trial  6: relative flow change = 0.003872
              Trial  7: relative flow change = 0.000071
    15:00:00: Balanced after 7 trials
    15:00:00: Tank T-1 is filling at 137.74 ft
    15:00:00: Tank T-3 is emptying at 147.63 ft
    15:00:00: Tank T-4 is filling at 152.73 ft
   
    16:00:00: Balancing the network:
              Trial  1: relative flow change = 0.631089
              Trial  2: relative flow change = 0.743491
              Trial  3: relative flow change = 0.615703
              Trial  4: relative flow change = 0.339437
              Trial  5: relative flow change = 0.123786
              Trial  6: relative flow change = 0.022233
              Trial  7: relative flow change = 0.001195
              Trial  8: relative flow change = 0.000044
    16:00:00: Balanced after 8 trials
    16:00:00: Tank T-1 is emptying at 140.85 ft
    16:00:00: Tank T-3 is filling at 142.32 ft
    16:00:00: Tank T-4 is emptying at 153.02 ft
   
    17:00:00: Balancing the network:
              Trial  1: relative flow change = 0.634595
              Trial  2: relative flow change = 0.601862
              Trial  3: relative flow change = 0.394882
              Trial  4: relative flow change = 0.151084
              Trial  5: relative flow change = 0.042460
              Trial  6: relative flow change = 0.009876
              Trial  7: relative flow change = 0.001072
              Trial  8: relative flow change = 0.000041
    17:00:00: Balanced after 8 trials
    17:00:00: Tank T-1 is filling at 137.02 ft
    17:00:00: Tank T-3 is emptying at 146.96 ft
    17:00:00: Tank T-4 is filling at 152.05 ft
   
    18:00:00: Balancing the network:
              Trial  1: relative flow change = 0.603466
              Trial  2: relative flow change = 0.606732
              Trial  3: relative flow change = 0.403960
              Trial  4: relative flow change = 0.177795
              Trial  5: relative flow change = 0.051326
              Trial  6: relative flow change = 0.007243
              Trial  7: relative flow change = 0.000585
              Trial  8: relative flow change = 0.000077
    18:00:00: Balanced after 8 trials
    18:00:00: Tank T-1 is emptying at 139.74 ft
    18:00:00: Tank T-3 is filling at 141.52 ft
    18:00:00: Tank T-4 is emptying at 152.29 ft
   
    19:00:00: Balancing the network:
              Trial  1: relative flow change = 0.596766
              Trial  2: relative flow change = 0.424784
              Trial  3: relative flow change = 0.187884
              Trial  4: relative flow change = 0.065925
              Trial  5: relative flow change = 0.020980
              Trial  6: relative flow change = 0.004387
              Trial  7: relative flow change = 0.000613
              Trial  8: relative flow change = 0.000022
    19:00:00: Balanced after 8 trials
    19:00:00: Tank T-1 is filling at 135.36 ft
    19:00:00: Tank T-3 is emptying at 145.67 ft
   
    20:00:00: Balancing the network:
              Trial  1: relative flow change = 0.431260
              Trial  2: relative flow change = 0.350798
              Trial  3: relative flow change = 0.098353
              Trial  4: relative flow change = 0.019303
              Trial  5: relative flow change = 0.001856
              Trial  6: relative flow change = 0.000036
    20:00:00: Balanced after 6 trials
    20:00:00: Tank T-1 is emptying at 137.15 ft
    20:00:00: Tank T-3 is filling at 140.00 ft
   
    21:00:00: Balancing the network:
              Trial  1: relative flow change = 0.584856
              Trial  2: relative flow change = 0.262133
              Trial  3: relative flow change = 0.082685
              Trial  4: relative flow change = 0.011397
              Trial  5: relative flow change = 0.000691
              Trial  6: relative flow change = 0.000045
    21:00:00: Balanced after 6 trials
    21:00:00: Tank T-1 is filling at 132.86 ft
    21:00:00: Tank T-3 is emptying at 143.19 ft
   
    22:00:00: Balancing the network:
              Trial  1: relative flow change = 0.762413
              Trial  2: relative flow change = 0.508593
              Trial  3: relative flow change = 0.146373
              Trial  4: relative flow change = 0.032118
              Trial  5: relative flow change = 0.003224
              Trial  6: relative flow change = 0.000257
              Trial  7: relative flow change = 0.000025
    22:00:00: Balanced after 7 trials
    22:00:00: Tank T-1 is emptying at 135.08 ft
    22:00:00: Tank T-3 is filling at 138.07 ft
   
    23:00:00: Balancing the network:
              Trial  1: relative flow change = 0.699125
              Trial  2: relative flow change = 0.429342
              Trial  3: relative flow change = 0.221418
              Trial  4: relative flow change = 0.063515
              Trial  5: relative flow change = 0.006766
              Trial  6: relative flow change = 0.000117
              Trial  7: relative flow change = 0.000001
    23:00:00: Balanced after 7 trials
    23:00:00: Tank T-1 is filling at 133.63 ft
    23:00:00: Tank T-3 is emptying at 142.40 ft
    23:00:00: Tank T-4 is filling at 148.03 ft
   
    24:00:00: Balancing the network:
              Trial  1: relative flow change = 0.607406
              Trial  2: relative flow change = 0.263531
              Trial  3: relative flow change = 0.088850
              Trial  4: relative flow change = 0.020033
              Trial  5: relative flow change = 0.001097
              Trial  6: relative flow change = 0.000018
    24:00:00: Balanced after 6 trials
    24:00:00: Tank T-1 is emptying at 138.60 ft
    24:00:00: Tank T-3 is filling at 138.94 ft
    24:00:00: Tank T-4 is emptying at 148.63 ft
   
   
  Node Results at 0:00:00 hrs:
  --------------------------------------------------------
                     Demand      Head  Pressure       AGE
  Node                  gpm        ft       psi       hrs
  --------------------------------------------------------
  J-1                  0.30   1133.35     56.49      0.00
  J-10                 0.17   1132.54     66.24      0.00
  J-100                0.12   1131.60     76.04      0.00
  J-1000               0.18   1110.41     59.92      0.00
  J-1001               0.21   1129.68     70.23      0.00
  J-1002               0.16   1125.01     82.78      0.00
  J-1003               0.37   1145.60     70.11      0.00
  J-1004               0.86   1132.33     74.38      0.00
  J-1005               0.05   1125.35     65.89      0.00
  J-1006              99.82   1132.09     60.21      0.00
  J-1007               0.08   1132.76     56.50      0.00
  J-1008               0.00   1139.21     69.28      0.00
  J-1009               0.64   1114.24     74.60      0.00
  J-101                0.20   1131.61     67.20      0.00
  J-1010               0.32   1139.97     75.46      0.00
  J-1011               0.49   1135.27     57.50      0.00
  J-1012               0.36   1124.27     88.44      0.00
  J-1013               1.05   1124.27     89.90      0.00
  J-1014               0.27   1131.00     77.15      0.00
  J-1015               0.18   1131.00     74.63      0.00
  J-1016               0.18   1139.97     61.06      0.00
  J-1017               3.01   1119.08     72.41      0.00
  J-1018               0.51   1132.72     57.03      0.00
  J-1019               0.24   1132.75     64.58      0.00
  J-102                0.55   1131.61     60.40      0.00
  J-1020               0.65   1126.55     67.07      0.00
  J-1021               0.29   1132.74     65.29      0.00
  J-1022               0.29   1129.64     57.26      0.00
  J-1023               0.32   1129.64     58.53      0.00
  J-1024               0.09   1124.85     77.26      0.00
  J-1025               0.35   1124.85     71.76      0.00
  J-1026               0.17   1127.09     76.74      0.00
  J-1027               0.50   1139.55     77.68      0.00
  J-1028               0.20   1139.55     68.53      0.00
  J-1029               0.27   1130.73     92.70      0.00
  J-103                0.70   1129.54     50.53      0.00
  J-1030               0.07   1130.73     94.00      0.00
  J-1031               0.75   1126.38     76.75      0.00
  J-1032               0.28   1124.27     86.56      0.00
  J-1033               0.44   1130.66     61.79      0.00
  J-1034               0.10   1139.55     48.92      0.00
  J-1035               0.77   1127.88     73.52      0.00
  J-1036               0.70   1132.24     67.23      0.00
  J-1037               0.60   1130.89     80.02      0.00
  J-1038               0.39   1138.15     65.34      0.00
  J-1039               0.19   1132.27     84.35      0.00
  J-104                0.62   1129.95     68.48      0.00
  J-1040               0.71   1131.02     91.05      0.00
  J-1041               0.10   1130.03     70.59      0.00
  J-1042               0.22   1130.89     81.55      0.00
  J-1043               0.14   1130.27     62.84      0.00
  J-1044               0.16   1132.24     66.73      0.00
  J-1045               0.42   1124.26     82.41      0.00
  J-1046               0.85   1130.86     67.42      0.00
  J-1047               0.54   1131.63     72.29      0.00
  J-1048               0.23   1133.09     55.34      0.00
  J-1049               0.30   1126.55     73.52      0.00
  J-105                0.44   1129.96     59.82      0.00
  J-1050               0.24   1130.87     65.97      0.00
  J-1051               0.57   1130.53     50.10      0.00
  J-1052               0.67   1132.68     58.94      0.00
  J-1053               0.38   1130.17     54.50      0.00
  J-1054               0.12   1130.87     86.52      0.00
  J-1055               0.74   1130.90     89.05      0.00
  J-1056               0.85   1125.91     74.60      0.00
  J-1057               0.24   1125.91     79.89      0.00
  J-1058               0.72   1138.78     71.59      0.00
  J-1059               0.32   1138.79     75.42      0.00
  J-106                0.30   1136.27     75.95      0.00
  J-1060               0.30   1132.39     55.69      0.00
  J-1061               0.14   1139.55     42.53      0.00
  J-1062               0.30   1129.97     67.58      0.00
  J-1063               0.73   1129.97     67.10      0.00
  J-1064               0.18   1139.56     65.09      0.00
  J-1065               0.37   1129.66     57.06      0.00
  J-1066               0.40   1125.01     80.18      0.00
  J-1067               0.31   1125.01     94.60      0.00
  J-1068               0.10   1125.02     89.66      0.00
  J-1069               0.25   1139.56     53.58      0.00
  J-107                0.89   1129.98     55.78      0.00
  J-1070               0.48   1139.56     52.56      0.00
  J-1071               0.41   1107.05     52.33      0.00
  J-1072               0.61   1107.05     62.34      0.00
  J-1073               0.14   1133.13     60.20      0.00
  J-1074               0.58   1139.54     46.30      0.00
  J-1075               0.51   1139.55     62.41      0.00
  J-1076               0.40   1139.55     58.21      0.00
  J-1077               0.44   1125.40     65.10      0.00
  J-1078               1.24   1125.40     84.23      0.00
  J-1079               0.81   1130.75     62.32      0.00
  J-108                0.61   1129.98     60.42      0.00
  J-1080               0.57   1125.01     72.95      0.00
  J-1081               0.39   1111.06     72.31      0.00
  J-1082               0.50   1111.26     65.98      0.00
  J-1083               0.32   1130.73     86.81      0.00
  J-1084               0.00   1136.00     77.52      0.00
  J-1085               0.04   1139.62     59.91      0.00
  J-1086               0.51   1130.87     69.29      0.00
  J-1087               0.37   1139.55     57.42      0.00
  J-1088               0.52   1129.98     48.94      0.00
  J-1089               0.14   1139.55     68.72      0.00
  J-109                0.57   1129.96     57.07      0.00
  J-1090               0.15   1125.40     62.57      0.00
  J-1091               0.31   1130.86     54.47      0.00
  J-1092               0.54   1125.01     86.48      0.00
  J-1093               0.12   1125.35     79.81      0.00
  J-1094               0.29   1135.41     80.00      0.00
  J-1095               0.18   1139.55     47.42      0.00
  J-1096               0.15   1128.06     71.42      0.00
  J-1097               0.08   1126.17     74.62      0.00
  J-1098               0.49   1129.98     56.58      0.00
  J-1099               0.04   1125.02     72.62      0.00
  J-11                 1.27   1132.74     69.06      0.00
  J-110                0.25   1131.61     61.07      0.00
  J-1100               0.34   1132.33     78.86      0.00
  J-1101               0.42   1123.51     85.21      0.00
  J-1102               0.16   1132.72     55.51      0.00
  J-1103               0.40   1139.64     58.67      0.00
  J-1104               0.08   1126.73     59.47      0.00
  J-1105               0.12   1128.60     64.02      0.00
  J-1106               0.14   1125.01     72.14      0.00
  J-1107               0.10   1139.55     79.30      0.00
  J-1108               0.75   1132.08     55.27      0.00
  J-1109               0.52   1139.91     56.38      0.00
  J-111                0.04   1131.61     60.80      0.00
  J-1110               0.22   1130.87     71.06      0.00
  J-1111               0.15   1131.37     78.18      0.00
  J-1112               0.21   1129.68     61.26      0.00
  J-1113               0.15   1139.97     60.06      0.00
  J-1114               0.32   1139.97     54.24      0.00
  J-1115               0.12   1125.02     69.56      0.00
  J-1116               0.45   1139.96     64.35      0.00
  J-1117               0.24   1139.96     64.77      0.00
  J-1118               0.15   1139.55     61.62      0.00
  J-1119               0.72   1130.73     69.34      0.00
  J-112                0.86   1131.63     68.24      0.00
  J-1120               0.57   1137.72     51.94      0.00
  J-1121               0.24   1129.68     72.78      0.00
  J-1122               0.62   1130.45     80.75      0.00
  J-1123               0.19   1130.30     71.90      0.00
  J-1124               0.16   1130.13     76.12      0.00
  J-1125               0.00   1135.97     77.48      0.00
  J-1126               0.30   1127.28     53.20      0.00
  J-1127               0.23   1127.28     55.23      0.00
  J-1128               0.65   1131.50     75.87      0.00
  J-1129               0.39   1127.31     62.57      0.00
  J-113                0.37   1131.63     88.59      0.00
  J-1130               0.07   1127.31     61.45      0.00
  J-1131               0.17   1125.01     80.77      0.00
  J-1132               0.88   1123.19     74.67      0.00
  J-1133               0.16   1139.97     74.78      0.00
  J-1134               0.15   1127.30     55.04      0.00
  J-1135               0.06   1127.31     59.89      0.00
  J-1136               0.33   1138.15     61.75      0.00
  J-1137               0.53   1107.36     57.33      0.00
  J-1138               0.29   1139.64     64.05      0.00
  J-1139               0.39   1141.28     68.42      0.00
  J-114                0.82   1131.56     79.12      0.00
  J-1140               1.14   1130.86     65.28      0.00
  J-1141               0.00   1127.52     68.88      0.00
  J-1142               0.21   1141.50     68.54      0.00
  J-1143               0.33   1133.55     58.76      0.00
  J-1144               0.03   1141.38     68.31      0.00
  J-1145               0.00   1135.17     67.53      0.00
  J-1146               0.16   1124.94     81.35      0.00
  J-1147               0.30   1124.94     70.79      0.00
  J-1148               0.35   1130.66     65.83      0.00
  J-1149               0.06   1111.26     62.10      0.00
  J-115                0.20   1130.89     88.26      0.00
  J-1150               0.05   1110.84     62.74      0.00
  J-1151               0.21   1124.71     62.77      0.00
  J-1152               0.44   1130.89     86.95      0.00
  J-1153               0.18   1139.97     69.99      0.00
  J-1154               0.04   1133.35     51.72      0.00
  J-1155               0.61   1124.27     75.65      0.00
  J-1156               0.19   1135.87     71.70      0.00
  J-1157               0.50   1139.97     60.79      0.00
  J-1158               1.10   1129.97     71.35      0.00
  J-1159               0.13   1139.97     66.71      0.00
  J-116                0.28   1137.13     75.49      0.00
  J-1160               0.14   1139.97     60.49      0.00
  J-1161               0.81   1130.86     61.38      0.00
  J-1162               0.09   1130.86     58.83      0.00
  J-1163               0.00   1140.00     69.80      0.00
  J-1164               0.82   1139.97     69.62      0.00
  J-1165               0.38   1128.94     68.77      0.00
  J-1166               0.21   1128.94     76.10      0.00
  J-1167               0.61   1139.94     43.45      0.00
  J-1168               0.46   1139.55     52.27      0.00
  J-1169               0.13   1139.55     43.59      0.00
  J-117                0.23   1133.10     54.45      0.00
  J-1170               0.39   1139.55     70.69      0.00
  J-1171               0.17   1139.55     73.73      0.00
  J-1172               0.34   1119.80     78.68      0.00
  J-1173               0.04   1127.28     53.41      0.00
  J-1174               0.10   1129.96     78.28      0.00
  J-1175               0.10   1129.96     78.14      0.00
  J-1176               0.04   1128.94     68.65      0.00
  J-1177               0.32   1127.23     54.48      0.00
  J-1178               0.28   1139.55     52.42      0.00
  J-1179               0.14   1126.22     73.12      0.00
  J-118                0.14   1131.71     84.88      0.00
  J-1180               0.38   1129.65     52.84      0.00
  J-1181               0.08   1129.96     78.11      0.00
  J-1182               0.09   1129.23     59.25      0.00
  J-1183               0.21   1130.86     61.26      0.00
  J-1184               0.10   1139.96     62.67      0.00
  J-1185               0.30   1129.97     75.56      0.00
  J-1186               0.18   1125.25     69.38      0.00
  J-1187               0.10   1125.40     61.89      0.00
  J-1188               0.12   1125.01     78.73      0.00
  J-1189               0.06   1125.04     75.33      0.00
  J-119                0.39   1131.71     87.68      0.00
  J-1190               0.57   1125.00     71.12      0.00
  J-1191               1.41   1120.57     62.06      0.00
  J-1192               0.43   1120.57     74.31      0.00
  J-1193               0.40   1124.96     68.59      0.00
  J-1194               0.06   1126.17     71.24      0.00
  J-1195               0.56   1130.64     74.38      0.00
  J-1196               0.36   1129.19     50.39      0.00
  J-1197               0.37   1127.28     54.43      0.00
  J-1198               0.18   1124.96     63.90      0.00
  J-1199               0.44   1130.72     80.62      0.00
  J-12                 0.49   1132.80     63.93      0.00
  J-120                2.08   1130.43     65.09      0.00
  J-1200               0.65   1129.22     53.33      0.00
  J-1201               0.17   1129.72     55.52      0.00
  J-1202               0.00   1139.98     70.46      0.00
  J-1203               0.53   1129.85     70.47      0.00
  J-1204               0.28   1125.00     73.06      0.00
  J-1205               0.47   1129.97     59.74      0.00
  J-1206               0.21   1139.97     60.99      0.00
  J-1207               0.28   1139.56     51.00      0.00
  J-1208               0.44   1124.04     64.14      0.00
  J-1209               0.32   1139.95     64.18      0.00
  J-121                1.55   1135.85     78.09      0.00
  J-1210               0.54   1120.57     91.28      0.00
  J-1211               1.05   1120.57     91.24      0.00
  J-1212               0.38   1139.97     63.85      0.00
  J-1213               0.16   1139.55     67.44      0.00
  J-1214               0.06   1127.23     59.84      0.00
  J-1215               0.13   1128.01     71.98      0.00
  J-1216               0.88   1130.86     54.13      0.00
  J-1217               0.03   1114.24     74.95      0.00
  J-1218               0.34   1129.16     58.64      0.00
  J-1219               0.30   1139.56     53.60      0.00
  J-122                0.60   1132.55     59.77      0.00
  J-1220               0.03   1125.25     69.83      0.00
  J-1221               1.08   1139.94     41.83      0.00
  J-1222               0.79   1139.97     69.86      0.00
  J-1223               0.82   1129.93     68.23      0.00
  J-1224               0.11   1128.14     64.43      0.00
  J-1225               0.10   1139.97     54.95      0.00
  J-1226               0.35   1139.97     55.56      0.00
  J-1227               0.50   1129.95     71.38      0.00
  J-1228               0.34   1139.93     56.35      0.00
  J-1229               1.59   1139.94     45.92      0.00
  J-123                1.44   1132.56     56.02      0.00
  J-1230               0.49   1139.94     43.48      0.00
  J-1231               0.11   1128.07     68.33      0.00
  J-1232               0.27   1139.93     63.38      0.00
  J-1233               0.19   1139.97     74.09      0.00
  J-1234               0.46   1139.97     73.38      0.00
  J-1235               0.24   1130.86     71.94      0.00
  J-1236               0.08   1139.95     63.89      0.00
  J-1237               0.10   1129.95     65.30      0.00
  J-1238               0.14   1139.97     64.02      0.00
  J-1239               0.13   1128.89     61.90      0.00
  J-124                0.05   1132.76     57.00      0.00
  J-1240               0.04   1129.85     70.35      0.00
  J-1241               0.51   1140.00     69.92      0.00
  J-1242               0.55   1140.17     57.91      0.00
  J-1243               0.13   1140.41     64.22      0.00
  J-1244               0.26   1139.56     59.01      0.00
  J-1245               0.08   1139.56     59.24      0.00
  J-1246               0.88   1128.94     63.92      0.00
  J-1247               0.28   1128.94     58.29      0.00
  J-1248               0.20   1131.63     86.41      0.00
  J-1249               0.69   1130.51     88.86      0.00
  J-125                0.90   1132.76     56.26      0.00
  J-1250               0.46   1131.63     83.34      0.00
  J-1251               0.66   1130.86     76.72      0.00
  J-1252               0.18   1130.86     81.04      0.00
  J-1253               0.51   1129.95     65.82      0.00
  J-1254               0.07   1130.86     56.03      0.00
  J-1255               0.25   1133.42     63.94      0.00
  J-1256               0.20   1134.83     71.44      0.00
  J-1257               0.25   1131.51     61.18      0.00
  J-1258               0.04   1129.98     58.72      0.00
  J-1259               0.63   1129.57     49.99      0.00
  J-126                0.26   1131.52     92.68      0.00
  J-1260               0.57   1125.35     55.80      0.00
  J-1261               0.39   1133.58     58.56      0.00
  J-1262               0.95   1130.00     70.77      0.00
  J-1263               0.14   1130.09     61.76      0.00
  J-1264               0.76   1130.86     80.33      0.00
  J-1265               0.00   1135.95     77.52      0.00
  J-1266               0.25   1132.28     62.24      0.00
  J-1267               0.11   1130.89     80.67      0.00
  J-1268               0.23   1130.89     84.91      0.00
  J-1269               0.79   1130.90     87.65      0.00
  J-127                0.19   1131.52     84.50      0.00
  J-1270               0.97   1130.51     99.35      0.00
  J-1271               0.00   1139.93     71.99      0.00
  J-1272               0.34   1130.10     74.10      0.00
  J-1273               0.65   1139.98     70.59      0.00
  J-1274               0.05   1130.43     52.56      0.00
  J-1275               0.45   1129.98     58.65      0.00
  J-1276               0.38   1125.51     70.44      0.00
  J-1277               0.10   1139.93     59.68      0.00
  J-1278               0.24   1139.91     48.87      0.00
  J-1279               0.30   1125.01     83.91      0.00
  J-128                0.09   1131.52     84.52      0.00
  J-1280               0.15   1125.01     83.85      0.00
  J-1281               0.57   1139.94     42.69      0.00
  J-1282               0.47   1130.11     87.70      0.00
  J-1283               0.11   1125.01     76.64      0.00
  J-1284               0.60   1129.64     56.19      0.00
  J-1285               0.68   1129.57     54.00      0.00
  J-1286               0.09   1139.97     69.11      0.00
  J-1287               0.08   1130.68     76.68      0.00
  J-1288               0.23   1130.90     98.76      0.00
  J-1289               0.47   1129.94     57.75      0.00
  J-129                0.11   1138.66     59.70      0.00
  J-1290               0.39   1129.94     67.28      0.00
  J-1291               0.10   1130.89     94.90      0.00
  J-1292               0.13   1129.94     60.83      0.00
  J-1293               0.37   1130.77     69.63      0.00
  J-1294               0.18   1119.91     73.67      0.00
  J-1295               0.22   1129.98     46.77      0.00
  J-1296               0.04   1129.98     59.30      0.00
  J-1297               0.00   1136.01     82.67      0.00
  J-1298               0.03   1136.10     66.99      0.00
  J-1299               0.00   1130.41     64.13      0.00
  J-13                 0.76   1125.25     89.36      0.00
  J-130                0.00   1131.22     88.20      0.00
  J-1300               0.00   1130.27     66.32      0.00
  J-1301               0.00   1124.04     65.82      0.00
  J-1302               0.38   1132.26     80.09      0.00
  J-1303               0.00   1137.35     61.03      0.00
  J-1304               0.00   1137.14     57.83      0.00
  J-1305               0.00   1139.56     54.27      0.00
  J-1306               0.00   1139.92     53.89      0.00
  J-1307               0.00   1138.02     63.43      0.00
  J-1308               0.00   1140.06     61.51      0.00
  J-1309               0.00   1138.31     61.13      0.00
  J-131                0.13   1131.66     88.90      0.00
  J-1310               0.00   1139.56     54.28      0.00
  J-1311               0.00   1139.56     53.60      0.00
  J-1312               0.00   1138.62     69.51      0.00
  J-1313               0.00   1138.62     57.59      0.00
  J-1314               0.00   1135.97     81.04      0.00
  J-1315               0.00   1137.28     77.82      0.00
  J-1316               0.00   1138.58     60.70      0.00
  J-1317               0.00   1120.61     85.61      0.00
  J-1318               0.00   1120.58     83.12      0.00
  J-1319               0.00   1120.57     83.35      0.00
  J-132                0.67   1139.97     54.24      0.00
  J-133                0.88   1136.71     76.89      0.00
  J-134                0.13   1130.87     76.34      0.00
  J-135                0.30   1130.87     76.98      0.00
  J-136                0.35   1130.64     86.19      0.00
  J-137                0.37   1131.31     83.96      0.00
  J-138                0.33   1131.57     86.68      0.00
  J-139                0.14   1131.55     88.26      0.00
  J-14                 0.46   1125.25     80.56      0.00
  J-140                0.33   1131.72     76.25      0.00
  J-141                0.97   1130.95    101.24      0.00
  J-142                0.61   1130.45     77.27      0.00
  J-143                1.06   1132.18     71.28      0.00
  J-144                0.82   1126.22     75.13      0.00
  J-145                0.30   1120.54     93.20      0.00
  J-146                0.16   1125.02     67.76      0.00
  J-147                0.00   1132.14     58.50      0.00
  J-148                0.59   1131.63     67.22      0.00
  J-149                1.11   1130.12     55.73      0.00
  J-15                 0.10   1132.76     67.30      0.00
  J-150                0.61   1138.18     57.91      0.00
  J-151                0.59   1131.56     85.90      0.00
  J-152                0.74   1132.92     58.46      0.00
  J-153                0.55   1132.84     62.98      0.00
  J-154                1.19   1138.95     60.32      0.00
  J-155                0.46   1138.92     68.41      0.00
  J-156                0.16   1132.76     56.80      0.00
  J-157                0.23   1132.75     62.03      0.00
  J-158                0.37   1132.78     60.55      0.00
  J-159                0.50   1131.41     74.21      0.00
  J-16                 0.15   1132.76     67.33      0.00
  J-160                0.94   1131.41     73.42      0.00
  J-161                0.15   1139.56     54.10      0.00
  J-162                0.05   1136.80     78.18      0.00
  J-163                0.53   1131.60     73.88      0.00
  J-164                0.59   1128.85     70.72      0.00
  J-165                1.45   1139.55     48.91      0.00
  J-166                0.23   1131.85     84.88      0.00
  J-167                0.74   1128.44     69.92      0.00
  J-168                0.52   1129.22     59.73      0.00
  J-169                0.84   1132.40     64.17      0.00
  J-17                 0.10   1132.76     67.17      0.00
  J-170                0.07   1132.76     66.01      0.00
  J-171                0.46   1130.23     82.54      0.00
  J-172                0.43   1132.27     87.34      0.00
  J-173                0.50   1132.29     83.96      0.00
  J-174                0.47   1139.68     60.74      0.00
  J-175                0.31   1139.68     57.83      0.00
  J-176                0.50   1129.97     54.29      0.00
  J-177                0.65   1131.61     60.45      0.00
  J-178                0.51   1133.08     56.42      0.00
  J-179                0.35   1133.35     52.75      0.00
  J-18                 0.35   1129.67     80.55      0.00
  J-180                1.24   1129.68     66.20      0.00
  J-181                1.26   1129.67     70.37      0.00
  J-182                0.17   1132.74     61.61      0.00
  J-183                0.69   1132.24     66.80      0.00
  J-184                0.27   1132.24     63.61      0.00
  J-185                0.63   1130.42     54.41      0.00
  J-186                1.10   1133.00     53.00      0.00
  J-187                0.55   1130.22     87.48      0.00
  J-188                0.30   1133.92     54.86      0.00
  J-189                0.38   1130.13     80.66      0.00
  J-19                 0.85   1129.67     79.82      0.00
  J-190                0.84   1131.08     88.68      0.00
  J-191                0.72   1131.06     74.13      0.00
  J-192                0.35   1136.74     79.35      0.00
  J-193                0.71   1134.96     66.82      0.00
  J-194                0.55   1134.95     57.57      0.00
  J-195                0.42   1129.45     51.81      0.00
  J-196                0.05   1131.61     67.08      0.00
  J-197                0.03   1132.76     67.23      0.00
  J-198                0.00   1132.67     54.59      0.00
  J-199                0.88   1129.98     58.83      0.00
  J-2                  0.54   1133.35     51.95      0.00
  J-20                 0.97   1131.60     85.09      0.00
  J-200                0.48   1126.55     66.40      0.00
  J-201                0.00   1139.98     55.96      0.00
  J-202                0.00   1139.93     40.77      0.00
  J-203                0.46   1131.64     75.94      0.00
  J-204                0.12   1130.87     90.30      0.00
  J-205                0.30   1130.87     85.10      0.00
  J-206                0.49   1131.64     74.59      0.00
  J-207                0.52   1130.30     78.25      0.00
  J-208                0.25   1138.98     66.83      0.00
  J-209                0.40   1138.86     67.57      0.00
  J-21                 0.89   1131.60     76.06      0.00
  J-210                0.29   1131.56     80.56      0.00
  J-211                0.11   1132.76     59.28      0.00
  J-212                0.17   1131.57     77.97      0.00
  J-213                0.11   1131.76     76.40      0.00
  J-214                0.54   1129.98     53.54      0.00
  J-215                0.47   1132.54     62.46      0.00
  J-216                0.09   1131.50     82.67      0.00
  J-217                0.20   1132.16     69.69      0.00
  J-218                0.36   1131.84     71.33      0.00
  J-219                0.50   1131.63     89.96      0.00
  J-22                 0.74   1129.57     63.02      0.00
  J-220                0.61   1130.12     58.43      0.00
  J-221                0.32   1130.89     55.08      0.00
  J-222                0.65   1130.86     54.89      0.00
  J-223                0.90   1130.86     68.32      0.00
  J-224                0.96   1138.62     57.59      0.00
  J-225                0.93   1138.47     60.62      0.00
  J-226                0.34   1129.96     76.38      0.00
  J-227                0.16   1129.96     78.46      0.00
  J-228                0.42   1129.96     72.79      0.00
  J-229                0.82   1130.44    102.08      0.00
  J-23                 0.44   1129.55     68.59      0.00
  J-230                0.20   1126.84     63.72      0.00
  J-231                0.23   1126.86     61.79      0.00
  J-232                0.25   1125.35     72.47      0.00
  J-233                0.44   1125.35     69.18      0.00
  J-234                1.25   1138.84     70.61      0.00
  J-235                0.32   1139.28     75.86      0.00
  J-236                0.80   1135.51     64.42      0.00
  J-237                0.60   1136.60     66.05      0.00
  J-238                0.55   1129.96     52.16      0.00
  J-239                0.00   1129.98     52.66      0.00
  J-24                 0.63   1130.87     90.40      0.00
  J-240                0.30   1133.61     62.09      0.00
  J-241                0.22   1133.61     57.06      0.00
  J-242                3.03   1130.89    113.70      0.00
  J-243                0.91   1130.89     92.08      0.00
  J-244                0.79   1130.89     77.97      0.00
  J-245                2.01   1120.53     92.53      0.00
  J-246                0.35   1120.54     92.27      0.00
  J-247                0.18   1127.09     76.11      0.00
  J-248                0.40   1127.09     70.38      0.00
  J-249                1.01   1129.68     59.38      0.00
  J-25                 0.76   1130.87     90.30      0.00
  J-251                0.42   1135.04     69.33      0.00
  J-252                0.41   1130.89    112.33      0.00
  J-253                0.86   1136.12     74.19      0.00
  J-254                0.80   1130.00    102.53      0.00
  J-255                0.57   1106.95     59.99      0.00
  J-256                0.47   1111.18     73.52      0.00
  J-257                0.34   1110.84     62.71      0.00
  J-258                0.63   1135.18     65.70      0.00
  J-259                0.27   1136.15     73.37      0.00
  J-26                 1.03   1136.22     76.99      0.00
  J-260                0.29   1120.54     85.96      0.00
  J-261                0.22   1120.54     65.64      0.00
  J-262                0.43   1126.82     68.81      0.00
  J-263                0.77   1128.08     74.81      0.00
  J-264                0.32   1125.35     72.68      0.00
  J-265                0.05   1125.35     72.60      0.00
  J-266                0.39   1134.56     65.43      0.00
  J-267                0.73   1135.00     60.72      0.00
  J-268                0.00   1139.98     67.43      0.00
  J-269                0.49   1125.35     79.92      0.00
  J-27                 0.14   1136.22     81.44      0.00
  J-270                0.27   1125.35     84.70      0.00
  J-271                0.10   1129.96     76.32      0.00
  J-272                0.26   1129.96     75.38      0.00
  J-273                0.47   1130.87     78.37      0.00
  J-274                0.12   1130.87     81.04      0.00
  J-275                0.30   1125.04     72.79      0.00
  J-276                0.77   1125.22     64.97      0.00
  J-277                0.68   1132.37     68.51      0.00
  J-278                0.22   1132.37     60.53      0.00
  J-279                0.22   1137.13     75.50      0.00
  J-28                 0.14   1132.76     67.81      0.00
  J-280                0.43   1126.88     64.39      0.00
  J-281                0.76   1126.88     63.33      0.00
  J-282                0.79   1126.93     73.38      0.00
  J-283                0.23   1126.93     73.69      0.00
  J-284                0.24   1133.61     54.97      0.00
  J-285                0.15   1133.61     56.99      0.00
  J-286                0.37   1136.98     69.11      0.00
  J-287                0.43   1138.65     61.21      0.00
  J-288                0.11   1129.96     72.44      0.00
  J-289                0.86   1126.66     65.89      0.00
  J-29                 0.10   1132.76     55.13      0.00
  J-290                0.50   1126.48     68.66      0.00
  J-291                0.69   1130.89    111.17      0.00
  J-292                0.71   1130.89    104.19      0.00
  J-293                0.44   1130.87     84.58      0.00
  J-294                0.93   1125.02     79.21      0.00
  J-295                0.52   1125.91     70.40      0.00
  J-296                0.74   1125.40     78.90      0.00
  J-297                0.94   1125.25     86.78      0.00
  J-298                0.77   1130.88     90.71      0.00
  J-299                0.17   1130.88     90.84      0.00
  J-3                  0.16   1131.63     79.54      0.00
  J-30                 0.67   1139.56     55.61      0.00
  J-300                0.48   1125.35     70.34      0.00
  J-301                0.75   1125.35     75.84      0.00
  J-302                0.27   1130.89     95.54      0.00
  J-303                0.34   1130.89    101.92      0.00
  J-304                0.28   1125.35     74.40      0.00
  J-305                0.64   1128.08     55.87      0.00
  J-306                0.56   1134.40     59.93      0.00
  J-307                0.39   1134.79     62.17      0.00
  J-308                0.71   1138.94     67.46      0.00
  J-309                0.28   1128.13     55.63      0.00
  J-31                 1.07   1139.56     54.22      0.00
  J-310                0.16   1128.13     65.40      0.00
  J-311                0.12   1132.37     64.81      0.00
  J-312                0.84   1129.67     76.96      0.00
  J-313                0.56   1129.68     70.59      0.00
  J-314                0.57   1130.90     93.19      0.00
  J-315                0.51   1130.89     91.02      0.00
  J-316                0.40   1132.88     65.41      0.00
  J-317                1.32   1131.24     69.32      0.00
  J-318                0.47   1126.73     60.00      0.00
  J-319                0.57   1133.55     59.14      0.00
  J-32                 0.22   1137.16     74.37      0.00
  J-320                0.66   1129.13     63.30      0.00
  J-321                0.16   1125.04     72.65      0.00
  J-322                1.03   1134.23     63.42      0.00
  J-323                0.00   1134.98    491.79      0.00
  J-324                0.45   1140.03     70.64      0.00
  J-325                0.21   1140.01     70.63      0.00
  J-326                0.26   1139.56     53.71      0.00
  J-327                0.24   1130.87     80.02      0.00
  J-328                0.49   1130.87     84.08      0.00
  J-329                0.90   1129.68     63.81      0.00
  J-33                 0.33   1137.20     74.93      0.00
  J-330                0.42   1129.69     57.70      0.00
  J-331                0.33   1130.53     53.77      0.00
  J-332                0.32   1130.60     56.61      0.00
  J-333                0.76   1136.22     75.18      0.00
  J-334                1.25   1136.25     55.79      0.00
  J-335                0.45   1129.92     59.76      0.00
  J-336                0.90   1139.13     62.66      0.00
  J-337                0.68   1138.84     63.62      0.00
  J-338                0.39   1136.07     80.97      0.00
  J-339                0.20   1136.72     80.97      0.00
  J-34                 0.35   1139.55     54.58      0.00
  J-340                0.43   1128.42     56.46      0.00
  J-341                0.97   1132.54     70.98      0.00
  J-342                0.40   1132.75     60.86      0.00
  J-343                0.78   1134.28     65.23      0.00
  J-344                0.97   1134.21     68.94      0.00
  J-345                0.97   1130.87     73.83      0.00
  J-346                0.22   1139.97     53.67      0.00
  J-347                0.40   1139.97     56.61      0.00
  J-348                0.15   1129.96     65.40      0.00
  J-349                0.44   1129.96     71.76      0.00
  J-35                 0.08   1139.55     53.31      0.00
  J-350                0.37   1139.98     56.72      0.00
  J-351                0.45   1126.77     71.65      0.00
  J-352                0.20   1131.61     60.40      0.00
  J-353                0.53   1131.08     91.22      0.00
  J-354                0.42   1130.87     73.44      0.00
  J-355                1.02   1139.55     45.20      0.00
  J-356                0.70   1120.61     85.01      0.00
  J-357                0.44   1120.66     84.40      0.00
  J-358                0.45   1140.13     61.28      0.00
  J-359                0.34   1140.19     59.24      0.00
  J-36                 0.00   1128.99     62.38      0.00
  J-360                0.27   1130.87     84.88      0.00
  J-361                0.30   1130.87     84.07      0.00
  J-362                0.51   1130.77     62.30      0.00
  J-363                0.59   1130.85     55.78      0.00
  J-364                0.37   1125.35     76.62      0.00
  J-365                0.00   1147.89     67.69      0.00
  J-366                0.30   1146.24     68.17      0.00
  J-367                0.26   1129.97     73.29      0.00
  J-368                0.24   1129.97     74.13      0.00
  J-369                0.46   1126.73     62.90      0.00
  J-37                 0.84   1129.96     47.15      0.00
  J-370                0.33   1126.58     62.09      0.00
  J-371                0.83   1125.57     72.39      0.00
  J-372                0.58   1140.41     62.04      0.00
  J-373                1.28   1138.63     57.16      0.00
  J-374                1.15   1139.56     60.76      0.00
  J-375                0.08   1129.96     76.61      0.00
  J-376                0.18   1128.34     75.53      0.00
  J-377                0.60   1125.40     67.24      0.00
  J-378                1.60   1125.40     79.05      0.00
  J-379                0.27   1132.72     59.81      0.00
  J-38                 0.22   1139.55     53.16      0.00
  J-380                0.53   1138.74     57.60      0.00
  J-381                1.09   1138.80     65.20      0.00
  J-382                0.35   1131.98     66.87      0.00
  J-383                0.24   1145.27     68.66      0.00
  J-384                0.00   1131.50     89.79      0.00
  J-385                0.22   1130.87     76.58      0.00
  J-386                0.33   1130.87     76.62      0.00
  J-387                0.55   1128.60     63.09      0.00
  J-388                0.92   1128.62     68.44      0.00
  J-389                0.24   1129.96     74.81      0.00
  J-39                 0.32   1139.55     53.94      0.00
  J-390                0.17   1125.00     75.79      0.00
  J-391                0.99   1139.14     68.96      0.00
  J-392                0.65   1140.39     78.88      0.00
  J-393                0.66   1126.97     73.69      0.00
  J-394                0.81   1127.01     69.86      0.00
  J-395                0.78   1130.87     74.33      0.00
  J-396                0.51   1130.87     85.86      0.00
  J-397                0.49   1121.58     87.80      0.00
  J-398                0.27   1121.58     90.54      0.00
  J-399                0.47   1138.79     69.92      0.00
  J-4                  0.50   1131.65     82.97      0.00
  J-40                 0.72   1129.95     52.15      0.00
  J-400                0.32   1130.76     60.95      0.00
  J-401                0.34   1130.77     58.73      0.00
  J-402                0.41   1130.88     87.24      0.00
  J-403                0.06   1130.88     88.61      0.00
  J-404                0.20   1132.24     84.37      0.00
  J-405                0.44   1132.24     73.75      0.00
  J-406                0.14   1139.56     58.98      0.00
  J-407                0.78   1139.56     58.90      0.00
  J-408                0.26   1125.35     78.21      0.00
  J-409                0.55   1130.88     83.86      0.00
  J-41                 0.66   1130.22     83.76      0.00
  J-410                0.33   1130.88     83.55      0.00
  J-411                0.46   1128.63     71.17      0.00
  J-412                0.07   1130.89     85.91      0.00
  J-413                0.20   1130.89     84.02      0.00
  J-414                0.34   1132.26     64.75      0.00
  J-415                0.44   1131.78     72.20      0.00
  J-416                0.47   1138.85     67.50      0.00
  J-417                0.64   1138.14     53.09      0.00
  J-418                1.13   1138.15     58.03      0.00
  J-419                0.71   1130.64     69.18      0.00
  J-42                 0.56   1130.23     74.92      0.00
  J-420                0.16   1130.64     73.88      0.00
  J-421                0.29   1127.66     80.58      0.00
  J-422                0.52   1125.62     78.19      0.00
  J-423                1.45   1130.87     64.73      0.00
  J-424                0.80   1130.87     82.07      0.00
  J-425                0.10   1129.97     76.50      0.00
  J-426                0.20   1129.68     66.34      0.00
  J-427                0.57   1129.68     66.96      0.00
  J-428                0.14   1139.97     57.32      0.00
  J-429                0.28   1139.97     47.73      0.00
  J-43                 0.31   1132.69     68.09      0.00
  J-430                0.00   1131.76     86.59      0.00
  J-431                0.54   1138.84     67.74      0.00
  J-432                0.69   1138.15     58.53      0.00
  J-433                0.33   1130.43     51.60      0.00
  J-434                0.23   1133.13     66.19      0.00
  J-435                1.11   1134.27     65.04      0.00
  J-436                0.69   1138.49     62.18      0.00
  J-437                0.17   1126.82     70.22      0.00
  J-438                0.52   1126.82     72.38      0.00
  J-439                0.22   1137.20     77.90      0.00
  J-44                 0.30   1132.72     65.22      0.00
  J-440                0.23   1138.95     79.03      0.00
  J-441                0.49   1126.80     65.13      0.00
  J-442                0.92   1125.41     81.29      0.00
  J-443                0.18   1126.55     60.45      0.00
  J-444                0.67   1126.55     62.27      0.00
  J-445                0.62   1130.87     81.27      0.00
  J-446                0.29   1111.18     87.17      0.00
  J-447                0.24   1130.89     84.92      0.00
  J-448                0.56   1130.89    102.50      0.00
  J-449                0.07   1130.89     82.66      0.00
  J-45                 0.67   1129.57     66.49      0.00
  J-450                0.28   1130.89     88.09      0.00
  J-451                0.71   1128.06     56.99      0.00
  J-452                0.48   1125.02     80.33      0.00
  J-453                0.66   1124.48     85.57      0.00
  J-454                0.52   1125.41     71.90      0.00
  J-455                0.30   1125.51     79.88      0.00
  J-456                0.14   1125.51     75.64      0.00
  J-457                0.47   1127.06     71.77      0.00
  J-458                0.13   1125.10     63.49      0.00
  J-459                0.51   1124.71     66.71      0.00
  J-46                 1.24   1129.54     62.35      0.00
  J-460                0.00   1132.80     47.71      0.00
  J-461                0.52   1139.61     54.82      0.00
  J-462                0.28   1126.40     69.80      0.00
  J-463                0.89   1125.91     71.44      0.00
  J-464                0.13   1126.55     67.33      0.00
  J-465                0.28   1126.55     63.62      0.00
  J-466                1.28   1130.89     87.71      0.00
  J-467                1.02   1129.97     93.78      0.00
  J-468                0.89   1139.80     63.53      0.00
  J-469                0.63   1139.15     59.56      0.00
  J-47                 0.66   1132.75     63.20      0.00
  J-470                0.43   1139.03     70.26      0.00
  J-471                0.37   1125.02     67.77      0.00
  J-472                0.56   1125.02     65.34      0.00
  J-473                0.17   1130.76     60.82      0.00
  J-474                0.39   1130.90    108.49      0.00
  J-475                0.42   1130.90    107.44      0.00
  J-476                0.36   1139.00     66.35      0.00
  J-477                0.18   1139.00     61.89      0.00
  J-478                0.13   1125.01     71.54      0.00
  J-479                0.54   1125.01     80.76      0.00
  J-48                 0.49   1132.75     72.70      0.00
  J-480                0.41   1130.86     71.91      0.00
  J-481                0.26   1130.86     82.45      0.00
  J-482                0.65   1130.87     67.04      0.00
  J-483                0.37   1130.87     76.12      0.00
  J-484                0.61   1130.71     49.94      0.00
  J-485                0.22   1129.97     76.31      0.00
  J-486                0.33   1129.97     73.23      0.00
  J-487                0.47   1130.87     82.01      0.00
  J-488                0.80   1139.56     54.62      0.00
  J-489                0.97   1139.62     59.95      0.00
  J-49                 0.54   1139.56     54.14      0.00
  J-490                0.07   1130.86     69.37      0.00
  J-491                0.45   1135.16     67.93      0.00
  J-492                0.35   1135.97     77.55      0.00
  J-493                0.90   1130.87     72.47      0.00
  J-494                0.44   1131.61     67.14      0.00
  J-495                0.31   1128.14     62.87      0.00
  J-496                0.49   1128.52     57.84      0.00
  J-497                0.15   1129.95     58.70      0.00
  J-498                0.30   1129.95     63.19      0.00
  J-499                0.69   1130.90    106.14      0.00
  J-5                  0.39   1129.67     55.68      0.00
  J-50                 0.79   1139.55     49.27      0.00
  J-500                0.73   1130.89    100.54      0.00
  J-501                0.78   1125.96     60.66      0.00
  J-502                0.23   1126.96     64.87      0.00
  J-503                1.07   1127.17     57.67      0.00
  J-504                0.32   1125.35     62.85      0.00
  J-505                0.30   1130.87     83.17      0.00
  J-506                0.92   1125.02     72.99      0.00
  J-507                0.78   1125.02     79.02      0.00
  J-508                0.19   1111.19     74.06      0.00
  J-509                0.04   1111.19     74.06      0.00
  J-51                 0.11   1136.80     78.65      0.00
  J-510                0.73   1128.60     52.60      0.00
  J-511                0.69   1127.42     73.01      0.00
  J-512                0.65   1127.35     74.92      0.00
  J-513                0.00   1132.76     59.19      0.00
  J-514                0.00   1129.98     58.91      0.00
  J-515                0.24   1130.87     80.68      0.00
  J-516                0.56   1137.03     56.73      0.00
  J-517                0.29   1136.51     60.62      0.00
  J-518                0.15   1130.87     78.03      0.00
  J-519                0.60   1130.87     85.03      0.00
  J-52                 0.26   1136.81     78.63      0.00
  J-520                0.44   1125.01     88.53      0.00
  J-521                0.44   1125.02     86.79      0.00
  J-522                0.08   1127.42     71.11      0.00
  J-523                0.61   1130.87     69.64      0.00
  J-524                0.20   1130.82     60.73      0.00
  J-525                0.65   1130.86     57.54      0.00
  J-526                1.35   1130.86     70.06      0.00
  J-527                0.68   1124.06     86.89      0.00
  J-528                0.59   1123.51     75.34      0.00
  J-529                0.16   1121.73     56.91      0.00
  J-53                 0.08   1132.76     61.65      0.00
  J-530                0.00   1126.17     76.62      0.00
  J-531                0.76   1127.00     69.04      0.00
  J-532                0.78   1139.95     62.90      0.00
  J-533                0.28   1139.95     56.50      0.00
  J-534                0.54   1133.44     50.25      0.00
  J-535                0.72   1135.04     68.83      0.00
  J-536                0.23   1134.07     73.80      0.00
  J-537                0.22   1134.15     73.90      0.00
  J-538                0.08   1139.96     57.04      0.00
  J-539                0.61   1139.96     58.58      0.00
  J-54                 1.10   1139.55     49.57      0.00
  J-540                0.52   1121.73     56.72      0.00
  J-541                0.25   1121.74     56.33      0.00
  J-542                0.81   1139.10     64.90      0.00
  J-543                0.40   1139.10     61.84      0.00
  J-544                0.51   1127.20     67.80      0.00
  J-545                0.11   1125.37     72.73      0.00
  J-546                0.26   1130.86     59.93      0.00
  J-547                0.83   1130.85     58.42      0.00
  J-548                0.41   1131.71     49.34      0.00
  J-549                0.45   1130.89     95.39      0.00
  J-55                 0.57   1129.09     57.67      0.00
  J-550                0.80   1130.89     84.07      0.00
  J-551                0.37   1125.02     96.61      0.00
  J-552                0.69   1125.02     96.14      0.00
  J-553                0.90   1136.84     64.94      0.00
  J-554                0.06   1136.84     66.94      0.00
  J-555                0.72   1137.74     58.38      0.00
  J-556                0.24   1135.39     85.50      0.00
  J-557                0.25   1136.09     82.23      0.00
  J-558                0.63   1121.22     90.36      0.00
  J-559                1.01   1122.70     83.75      0.00
  J-56                 0.00   1132.67     54.76      0.00
  J-560                0.59   1123.19     62.24      0.00
  J-561                0.22   1123.19     59.76      0.00
  J-562                1.29   1130.75     57.18      0.00
  J-563                0.97   1131.22     52.07      0.00
  J-564                0.60   1126.75     56.78      0.00
  J-565                0.20   1125.28     72.68      0.00
  J-566                0.00   1129.53     50.61      0.00
  J-567                0.81   1132.37     75.42      0.00
  J-568                0.71   1132.24     88.78      0.00
  J-569                0.48   1137.44     63.56      0.00
  J-57                 0.00   1132.71     55.92      0.00
  J-570                0.11   1137.44     62.20      0.00
  J-571                0.55   1130.87     80.94      0.00
  J-572                0.46   1130.92    104.98      0.00
  J-573                0.50   1130.90    107.85      0.00
  J-574                0.21   1125.07     63.73      0.00
  J-575                1.33   1137.55     66.49      0.00
  J-576                0.44   1122.40     79.11      0.00
  J-577                0.30   1118.16     71.88      0.00
  J-578                0.59   1119.91     82.69      0.00
  J-579                0.45   1129.96     83.44      0.00
  J-58                 0.19   1132.76     52.39      0.00
  J-580                0.10   1129.96     81.45      0.00
  J-581                0.26   1125.62     60.70      0.00
  J-582                0.17   1122.53     57.25      0.00
  J-583                0.63   1139.93     41.97      0.00
  J-584                0.00   1135.15     67.72      0.00
  J-585                0.69   1131.70     79.84      0.00
  J-586                1.44   1109.21     70.86      0.00
  J-587                1.41   1107.45     54.73      0.00
  J-588                0.36   1132.18     60.83      0.00
  J-589                0.77   1132.20     71.81      0.00
  J-59                 0.29   1132.75     61.33      0.00
  J-590                0.68   1127.85     68.18      0.00
  J-591                0.17   1130.87     73.68      0.00
  J-592                0.04   1125.40     79.18      0.00
  J-593                0.29   1130.87     77.99      0.00
  J-594                0.69   1111.70     65.03      0.00
  J-595                0.21   1125.02     78.13      0.00
  J-596                0.43   1130.58     73.66      0.00
  J-597                0.19   1132.30     61.74      0.00
  J-598                0.30   1132.30     59.01      0.00
  J-599                0.69   1125.36     85.05      0.00
  J-6                  0.59   1129.57     62.44      0.00
  J-60                 0.14   1131.61     61.06      0.00
  J-600                0.12   1123.19     58.30      0.00
  J-601                1.47   1125.02     74.29      0.00
  J-602                1.25   1125.02     83.91      0.00
  J-603                0.15   1125.04     75.56      0.00
  J-604                0.61   1130.19     50.30      0.00
  J-605                0.58   1130.54     57.28      0.00
  J-606                0.21   1120.54     84.46      0.00
  J-607                0.07   1120.54     84.52      0.00
  J-608                0.42   1125.35     66.79      0.00
  J-609                0.49   1125.35     59.86      0.00
  J-61                 0.12   1131.51     85.81      0.00
  J-610                0.92   1139.55     62.68      0.00
  J-611                1.11   1137.50     64.64      0.00
  J-612                0.58   1137.24     57.48      0.00
  J-613                0.52   1139.56     54.03      0.00
  J-614                0.19   1125.35     82.31      0.00
  J-615                0.70   1139.91     54.15      0.00
  J-616                0.40   1125.31     63.28      0.00
  J-617                0.61   1125.01     84.77      0.00
  J-618                0.82   1130.31     58.13      0.00
  J-619                0.19   1127.85     68.69      0.00
  J-62                 0.24   1132.81     56.00      0.00
  J-620                0.59   1127.85     57.18      0.00
  J-621                0.32   1125.57     72.61      0.00
  J-622                0.53   1139.82     67.59      0.00
  J-623                0.10   1139.98     59.09      0.00
  J-624                0.25   1139.98     69.40      0.00
  J-625                0.79   1125.01     69.22      0.00
  J-626                0.95   1130.36     64.95      0.00
  J-627                0.19   1130.35     65.85      0.00
  J-628                0.06   1110.84     63.84      0.00
  J-629                0.33   1130.53     77.25      0.00
  J-63                 0.21   1132.81     47.46      0.00
  J-630                0.39   1128.96     80.44      0.00
  J-631                0.67   1139.54     54.05      0.00
  J-632                0.26   1120.76     57.51      0.00
  J-633                0.16   1125.01     82.11      0.00
  J-634                0.36   1125.01     75.22      0.00
  J-635                0.30   1129.96     82.74      0.00
  J-636                0.13   1129.96     76.77      0.00
  J-637                0.30   1139.98     70.47      0.00
  J-638                1.23   1130.19     51.45      0.00
  J-639                0.35   1111.57     70.03      0.00
  J-64                 0.05   1120.54     92.56      0.00
  J-640                0.21   1111.57     78.51      0.00
  J-641                0.41   1132.28     57.93      0.00
  J-642                0.00   1135.15     67.45      0.00
  J-643                0.10   1125.02     70.34      0.00
  J-644                0.04   1124.99     76.03      0.00
  J-645                0.21   1124.99     75.84      0.00
  J-646                0.62   1131.22     60.76      0.00
  J-647                0.80   1125.02     66.88      0.00
  J-648                0.21   1134.77     71.80      0.00
  J-649                0.15   1130.87     74.32      0.00
  J-65                 0.04   1120.54     90.61      0.00
  J-650                0.31   1139.97     65.75      0.00
  J-651                0.70   1139.97     75.53      0.00
  J-652                0.68   1133.30     55.27      0.00
  J-653                0.82   1133.06     56.14      0.00
  J-654                0.06   1120.54     87.54      0.00
  J-655                0.32   1130.87     83.87      0.00
  J-656                0.54   1139.97     65.99      0.00
  J-657                0.32   1139.97     60.29      0.00
  J-658                0.27   1124.96     69.33      0.00
  J-659                0.21   1124.99     73.36      0.00
  J-66                 0.18   1139.98     58.82      0.00
  J-660                0.71   1134.70     71.03      0.00
  J-661                0.64   1134.08     63.30      0.00
  J-662                0.48   1140.52     78.80      0.00
  J-663                0.43   1139.97     68.09      0.00
  J-664                0.78   1139.97     62.99      0.00
  J-665                0.16   1126.55     69.08      0.00
  J-666                0.16   1130.89     75.35      0.00
  J-667                0.92   1130.90     73.84      0.00
  J-668                0.47   1140.03     70.64      0.00
  J-669                0.23   1132.20     79.46      0.00
  J-67                 0.00   1130.27     72.36      0.00
  J-670                0.31   1125.35     67.41      0.00
  J-671                0.82   1130.86     55.25      0.00
  J-672                0.66   1130.86     66.51      0.00
  J-673                0.09   1139.97     66.02      0.00
  J-674                0.40   1139.97     61.02      0.00
  J-675                0.23   1131.60     76.94      0.00
  J-676                0.06   1131.60     73.74      0.00
  J-677                0.19   1130.82     79.55      0.00
  J-678                0.45   1130.82     77.07      0.00
  J-679                0.43   1111.46     74.28      0.00
  J-68                 0.67   1132.62     69.95      0.00
  J-680                0.22   1111.46     79.85      0.00
  J-681                0.21   1129.69     55.24      0.00
  J-682                0.34   1130.87     73.73      0.00
  J-683                0.10   1130.87     76.29      0.00
  J-684                0.58   1130.06     65.20      0.00
  J-685                0.54   1130.09     65.92      0.00
  J-686                0.36   1127.06     62.60      0.00
  J-687                0.44   1127.09     61.93      0.00
  J-688                0.51   1130.86     67.45      0.00
  J-689                1.08   1130.86     64.50      0.00
  J-69                 0.06   1120.54     92.87      0.00
  J-690                0.37   1127.05     61.12      0.00
  J-691                1.17   1130.86     51.67      0.00
  J-692                1.09   1130.06    101.29      0.00
  J-693                0.00   1135.11     65.65      0.00
  J-694                0.46   1129.69     55.48      0.00
  J-695                0.49   1129.64     60.11      0.00
  J-696                0.07   1137.03     57.92      0.00
  J-697                0.09   1137.03     56.07      0.00
  J-698                1.33   1107.39     56.32      0.00
  J-699                0.53   1107.39     49.38      0.00
  J-7                  0.24   1132.75     55.93      0.00
  J-70                 0.04   1120.54     91.35      0.00
  J-700                0.40   1134.98     71.15      0.00
  J-701                0.73   1135.19     76.28      0.00
  J-702                0.18   1128.60     57.30      0.00
  J-703                0.43   1133.12     56.00      0.00
  J-704                0.96   1129.54     62.35      0.00
  J-705                0.62   1131.37     73.40      0.00
  J-706                0.07   1130.71     77.02      0.00
  J-707                0.28   1130.71     78.55      0.00
  J-708                0.15   1130.87     65.80      0.00
  J-709                0.59   1139.03     59.64      0.00
  J-71                 0.28   1131.54     83.62      0.00
  J-710                0.25   1125.25     67.68      0.00
  J-711                0.68   1125.25     78.02      0.00
  J-712                0.45   1129.96     59.57      0.00
  J-713                0.39   1130.75     60.27      0.00
  J-714                0.27   1130.76     63.39      0.00
  J-715                0.62   1136.31     55.49      0.00
  J-716                0.20   1136.46     57.98      0.00
  J-717                0.51   1130.87     80.89      0.00
  J-718                0.17   1130.87     82.31      0.00
  J-719                0.09   1129.96     77.64      0.00
  J-72                 0.62   1131.59     83.91      0.00
  J-720                0.75   1139.48     78.20      0.00
  J-721                0.64   1120.72     87.26      0.00
  J-722                0.09   1129.97     71.34      0.00
  J-723                0.04   1136.79     80.81      0.00
  J-724                0.13   1136.79     80.91      0.00
  J-725                0.30   1127.09     75.72      0.00
  J-726                0.61   1125.01     95.37      0.00
  J-727                0.21   1125.01     92.35      0.00
  J-728                0.53   1129.97     68.37      0.00
  J-729                0.33   1125.35     64.40      0.00
  J-73                 0.22   1131.51     83.42      0.00
  J-730                0.10   1132.24     71.11      0.00
  J-731                0.08   1125.02     93.50      0.00
  J-732                0.58   1125.02     82.88      0.00
  J-733                0.42   1135.06     61.48      0.00
  J-734                0.17   1130.87     71.88      0.00
  J-735                0.17   1132.77     61.68      0.00
  J-736                0.44   1132.77     60.10      0.00
  J-737                0.33   1126.87     58.13      0.00
  J-738                0.47   1143.85     76.63      0.00
  J-739                1.01   1139.94     48.51      0.00
  J-74                 0.47   1120.54     91.24      0.00
  J-740                0.05   1130.89     91.26      0.00
  J-741                0.25   1130.89     90.27      0.00
  J-742                0.13   1125.35     57.89      0.00
  J-743                0.00   1132.14     79.08      0.00
  J-744                0.48   1133.58     63.96      0.00
  J-745                0.35   1139.98     51.43      0.00
  J-746                0.71   1139.98     56.36      0.00
  J-747                0.59   1124.95     77.07      0.00
  J-748                0.56   1124.96     71.52      0.00
  J-749                0.12   1131.60     79.84      0.00
  J-75                 0.28   1132.93     60.76      0.00
  J-750                0.21   1139.91     59.11      0.00
  J-751                1.00   1139.89     58.78      0.00
  J-752                0.73   1130.46     60.90      0.00
  J-753                0.39   1125.01     74.78      0.00
  J-754                0.23   1124.96     75.17      0.00
  J-755                0.51   1130.91    100.51      0.00
  J-756                0.42   1125.21     71.25      0.00
  J-757                0.40   1124.71     69.58      0.00
  J-758                0.10   1124.71     75.52      0.00
  J-759                0.58   1134.62     61.41      0.00
  J-76                 0.88   1132.93     60.79      0.00
  J-760                0.46   1134.62     49.92      0.00
  J-761                0.34   1139.97     51.82      0.00
  J-762                0.41   1129.98     68.98      0.00
  J-763                0.41   1129.98     60.33      0.00
  J-764                0.18   1141.28     72.02      0.00
  J-765                0.19   1141.28     68.42      0.00
  J-766                0.43   1125.35     66.64      0.00
  J-767                0.75   1125.35     68.30      0.00
  J-768                0.06   1125.25     74.56      0.00
  J-769                0.16   1130.89     93.56      0.00
  J-77                 0.00   1130.53     50.86      0.00
  J-770                0.39   1125.02     71.41      0.00
  J-771                0.21   1130.89     95.00      0.00
  J-772                0.26   1131.02     84.07      0.00
  J-773                0.55   1131.02     90.99      0.00
  J-774                0.63   1125.01     82.26      0.00
  J-775                0.44   1130.90     90.19      0.00
  J-776                0.39   1130.86     84.57      0.00
  J-777                0.36   1130.89     87.25      0.00
[...]
  J-702                0.18   1131.82     58.69      0.00
  J-703                0.43   1133.08     55.98      0.00
  J-704                0.96   1131.60     63.24      0.00
  J-705                0.62   1134.62     74.82      0.00
  J-706                0.07   1134.45     78.64      0.00
  J-707                0.28   1134.45     80.17      0.00
  J-708                0.15   1134.50     67.37      0.00
  J-709                0.59   1130.81     56.08      0.00
  J-71                 0.28   1130.46     83.15      0.00
  J-710                0.25   1127.64     68.71      0.00
  J-711                0.68   1127.64     79.05      0.00
  J-712                0.45   1133.14     60.95      0.00
  J-713                0.39   1131.60     60.64      0.00
  J-714                0.27   1131.60     63.76      0.00
  J-715                0.62   1129.80     52.66      0.00
  J-716                0.20   1129.83     55.11      0.00
  J-717                0.51   1134.50     82.47      0.00
  J-718                0.17   1134.50     83.88      0.00
  J-719                0.09   1133.68     79.25      0.00
  J-72                 0.62   1130.53     83.45      0.00
  J-720                0.75   1130.91     74.49      0.00
  J-721                0.64   1132.66     92.43      0.00
  J-722                0.09   1133.67     72.95      0.00
  J-723                0.04   1130.99     78.30      0.00
  J-724                0.13   1130.99     78.40      0.00
  J-725                0.30   1131.97     77.83      0.00
  J-726                0.61   1127.64     96.50      0.00
  J-727                0.21   1127.64     93.49      0.00
  J-728                0.53   1133.68     69.97      0.00
  J-729                0.33   1132.96     67.69      0.00
  J-73                 0.22   1130.44     82.95      0.00
  J-730                0.10   1134.46     72.08      0.00
  J-731                0.08   1127.64     94.64      0.00
  J-732                0.58   1127.64     84.01      0.00
  J-733                0.42   1131.09     59.76      0.00
  J-734                0.17   1134.50     73.45      0.00
  J-735                0.17   1133.35     61.93      0.00
  J-736                0.44   1133.35     60.34      0.00
  J-737                0.33   1133.31     60.92      0.00
  J-738                0.47   1130.92     71.03      0.00
  J-739                1.01   1130.51     44.42      0.00
  J-74                 0.47   1132.66     96.49      0.00
  J-740                0.05   1134.52     92.84      0.00
  J-741                0.25   1134.52     91.85      0.00
  J-742                0.13   1132.96     61.19      0.00
  J-743                0.00   1136.46     80.95      0.00
  J-744                0.48   1131.27     62.96      0.00
  J-745                0.35   1130.54     47.34      0.00
  J-746                0.71   1130.54     52.27      0.00
  J-747                0.59   1132.45     80.31      0.00
  J-748                0.56   1132.44     74.76      0.00
  J-749                0.12   1130.60     79.40      0.00
  J-75                 0.28   1133.73     61.11      0.00
  J-750                0.21   1130.52     55.05      0.00
  J-751                1.00   1130.52     54.72      0.00
  J-752                0.73   1132.31     61.70      0.00
  J-753                0.39   1127.64     75.92      0.00
  J-754                0.23   1132.44     78.41      0.00
  J-755                0.51   1134.54    102.08      0.00
  J-756                0.42   1127.43     72.21      0.00
  J-757                0.40   1132.42     72.92      0.00
  J-758                0.10   1132.42     78.86      0.00
  J-759                0.58   1133.18     60.78      0.00
  J-76                 0.88   1133.73     61.14      0.00
  J-760                0.46   1133.17     49.29      0.00
  J-761                0.34   1130.53     47.73      0.00
  J-762                0.41   1133.79     70.63      0.00
  J-763                0.41   1133.79     61.98      0.00
  J-764                0.18   1130.92     67.53      0.00
  J-765                0.19   1130.92     63.93      0.00
  J-766                0.43   1132.96     69.94      0.00
  J-767                0.75   1132.96     71.60      0.00
  J-768                0.06   1127.64     75.60      0.00
  J-769                0.16   1134.53     95.14      0.00
  J-77                 0.00   1131.64     51.34      0.00
  J-770                0.39   1132.31     74.57      0.00
  J-771                0.21   1134.52     96.58      0.00
  J-772                0.26   1134.53     85.59      0.00
  J-773                0.55   1134.53     92.51      0.00
  J-774                0.63   1127.64     83.40      0.00
  J-775                0.44   1134.56     91.77      0.00
  J-776                0.39   1134.53     86.16      0.00
  J-777                0.36   1134.53     88.82      0.00
  J-778                0.60   1134.52     70.44      0.00
  J-779                0.05   1134.52     87.70      0.00
  J-78                 0.89   1131.73     51.83      0.00
  J-780                0.39   1129.71     74.00      0.00
  J-781                0.32   1129.70     72.44      0.00
  J-782                0.04   1132.42     75.91      0.00
  J-783                0.06   1132.66     70.48      0.00
  J-784                0.00   1131.13     71.63      0.00
  J-785                0.43   1133.72     52.88      0.00
  J-786                0.53   1130.53     46.25      0.00
  J-787                0.13   1133.39     57.37      0.00
  J-788                0.61   1133.39     61.53      0.00
  J-789                0.32   1130.94     75.43      0.00
  J-79                 1.52   1131.98     63.75      0.00
  J-790                0.16   1130.13     77.75      0.00
  J-792                0.37   1130.63     62.81      0.00
  J-793                0.27   1133.59     69.72      0.00
  J-794                0.24   1133.59     69.74      0.00
  J-795                0.50   1130.91     72.27      0.00
  J-796                0.64   1131.55     62.70      0.00
  J-797                0.73   1133.39     66.37      0.00
  J-798                0.37   1130.45     72.91      0.00
  J-799                0.92   1134.50     78.27      0.00
  J-8                  0.08   1135.04     61.13      0.00
  J-80                 1.18   1132.73     59.45      0.00
  J-800                1.25   1134.55     61.34      0.00
  J-801                0.64   1134.67     76.76      0.00
  J-802                0.18   1133.68     79.25      0.00
  J-803                0.06   1133.68     75.58      0.00
  J-804                0.37   1133.39     56.63      0.00
  J-805                0.30   1133.39     56.62      0.00
  J-806                0.19   1133.39     58.89      0.00
  J-807                0.38   1132.06     71.06      0.00
  J-808                0.78   1134.50     76.05      0.00
  J-809                0.61   1134.50     73.38      0.00
  J-81                 0.56   1133.40     67.33      0.00
  J-810                0.36   1127.64     88.01      0.00
  J-811                0.63   1127.64     79.89      0.00
  J-812                0.71   1133.97     60.52      0.00
  J-813                0.99   1133.84     53.61      0.00
  J-814                1.03   1133.43     71.80      0.00
  J-815                0.39   1133.68     66.88      0.00
  J-816                0.82   1134.49     69.55      0.00
  J-817                0.25   1134.59     62.02      0.00
  J-818                0.35   1132.66     74.46      0.00
  J-819                0.52   1133.17     66.78      0.00
  J-82                 0.62   1133.09     68.38      0.00
  J-820                0.66   1131.64     50.58      0.00
  J-821                0.32   1131.64     49.75      0.00
  J-822                0.46   1127.64     70.95      0.00
  J-823                0.33   1134.53     85.35      0.00
  J-824                0.60   1133.15     65.29      0.00
  J-825                0.16   1134.53     86.97      0.00
  J-826                0.63   1132.96     57.68      0.00
  J-827                0.12   1134.53    100.33      0.00
  J-828                0.07   1132.66     73.64      0.00
  J-829                0.51   1132.96     69.59      0.00
  J-83                 0.56   1130.68     65.41      0.00
  J-830                0.15   1134.50     72.43      0.00
  J-831                0.17   1132.45     83.17      0.00
  J-832                0.36   1132.45     84.39      0.00
  J-833                0.49   1145.86    105.08      0.00
  J-834                0.04   1145.86    104.80      0.00
  J-835                0.47   1131.62     63.85      0.00
  J-836                0.45   1130.54     50.32      0.00
  J-837                0.73   1130.52     41.25      0.00
  J-838                0.50   1130.71     54.12      0.00
  J-839                0.52   1131.64     47.35      0.00
  J-84                 0.54   1130.62     67.67      0.00
  J-840                0.13   1133.67     81.74      0.00
  J-841                0.15   1132.17     60.36      0.00
  J-842                0.70   1133.68     79.70      0.00
  J-843                0.09   1134.44     78.83      0.00
  J-844                0.59   1133.77     55.44      0.00
  J-845                0.47   1133.59     52.30      0.00
  J-846                0.08   1132.66     92.60      0.00
  J-847                0.25   1132.46     85.21      0.00
  J-848                0.64   1132.40     62.42      0.00
  J-849                0.47   1132.10     62.93      0.00
  J-85                 0.33   1131.00     66.77      0.00
  J-850                0.23   1134.56     91.04      0.00
  J-851                0.24   1132.66     91.44      0.00
  J-852                0.47   1130.51     41.86      0.00
  J-853                1.06   1130.51     41.86      0.00
  J-854                0.00   1131.13     72.34      0.00
  J-855                0.00   1131.02     57.90      0.00
  J-856                0.13   1131.13     71.51      0.00
  J-857                0.69   1132.66     72.65      0.00
  J-858                0.51   1134.52     76.67      0.00
  J-859                0.55   1133.23     73.48      0.00
  J-86                 0.25   1131.05     63.07      0.00
  J-860                0.14   1134.97     47.95      0.00
  J-861                0.31   1129.46     58.64      0.00
  J-862                0.60   1129.79     53.44      0.00
  J-863                0.36   1132.66     96.48      0.00
  J-864                0.32   1129.79     52.85      0.00
  J-865                0.18   1134.49     55.76      0.00
  J-866                0.06   1134.49     55.71      0.00
  J-867                0.26   1132.94     56.91      0.00
  J-868                0.72   1132.94     57.52      0.00
  J-869                0.28   1130.54     62.79      0.00
  J-87                 0.27   1134.42     71.75      0.00
  J-870                0.10   1133.39     61.74      0.00
  J-871                0.10   1133.31     66.33      0.00
  J-872                0.45   1127.64     73.98      0.00
  J-873                0.33   1134.49     79.58      0.00
  J-874                0.29   1131.24     55.52      0.00
  J-875                0.67   1133.42     77.30      0.00
  J-876                0.27   1133.41     74.72      0.00
  J-877                0.13   1132.42     77.09      0.00
  J-878                0.32   1132.42     73.80      0.00
  J-879                0.43   1131.41     58.73      0.00
  J-88                 2.39   1133.40     67.87      0.00
  J-880                0.46   1131.41     53.93      0.00
  J-881                0.22   1133.21     88.38      0.00
  J-882                0.27   1133.15     79.13      0.00
  J-883                0.39   1128.28     79.79      0.00
  J-884                0.73   1128.21     62.49      0.00
  J-885                0.19   1130.75     70.96      0.00
  J-886                0.29   1128.54     68.04      0.00
  J-887                0.05   1133.72     53.36      0.00
  J-888                0.25   1129.78     62.27      0.00
  J-889                0.22   1133.62     60.81      0.00
  J-89                 0.59   1133.05     67.99      0.00
  J-890                0.14   1132.66     90.12      0.00
  J-891                0.24   1131.01     77.15      0.00
  J-892                0.36   1132.96     68.79      0.00
  J-893                0.10   1134.50     85.34      0.00
  J-894                0.04   1131.61     54.24      0.00
  J-895                0.14   1132.42     73.02      0.00
  J-896                0.84   1127.64     86.29      0.00
  J-897                0.67   1130.53     67.77      0.00
  J-898                0.12   1130.53     67.92      0.00
  J-899                0.55   1130.52     64.14      0.00
  J-9                  0.35   1130.83     78.27      0.00
  J-90                 0.49   1134.20     77.23      0.00
  J-900                0.39   1130.52     68.23      0.00
  J-901                0.55   1134.54     99.20      0.00
  J-902                0.52   1145.86     86.51      0.00
  J-903                0.25   1145.86     85.01      0.00
  J-904                0.55   1130.79     52.82      0.00
  J-905                0.40   1131.24     76.10      0.00
  J-906                0.47   1133.70     60.02      0.00
  J-907                0.05   1133.74     60.58      0.00
  J-908                0.22   1134.48     79.34      0.00
  J-909                0.47   1134.48     90.55      0.00
  J-91                 0.57   1134.20     77.38      0.00
  J-910                0.23   1134.53    101.36      0.00
  J-911                0.32   1131.71     58.03      0.00
  J-912                0.24   1131.72     57.09      0.00
  J-913                0.55   1131.84     61.23      0.00
  J-914                0.34   1129.97     68.63      0.00
  J-915                1.13   1129.80     64.44      0.00
  J-916                0.21   1134.46     73.55      0.00
  J-917                0.76   1132.43     88.95      0.00
  J-918                0.26   1132.44     85.68      0.00
  J-919                0.27   1127.91     64.58      0.00
  J-92                 0.03   1134.20     77.45      0.00
  J-920                0.20   1132.66     94.35      0.00
  J-921                0.36   1131.53     62.46      0.00
  J-922                0.39   1134.46     73.84      0.00
  J-923                0.14   1134.46     81.04      0.00
  J-924                0.28   1130.53     70.44      0.00
  J-925                0.18   1130.53     69.80      0.00
  J-926                0.21   1129.70     67.17      0.00
  J-927                0.74   1132.45     87.90      0.00
  J-928                0.39   1132.45     85.83      0.00
  J-929                0.54   1130.42     77.88      0.00
  J-93                 0.64   1130.56     79.05      0.00
  J-930                0.10   1134.51     83.85      0.00
  J-931                1.18   1132.61    102.86      0.00
  J-932                5.90   1132.61     68.05      0.00
  J-933                0.46   1127.64     70.40      0.00
  J-934                0.00   1131.03     57.43      0.00
  J-935                0.05   1133.66     73.64      0.00
  J-936                0.42   1130.53     50.49      0.00
  J-937                0.60   1130.53     49.51      0.00
  J-938                0.31   1130.54     59.88      0.00
  J-939                0.38   1130.54     60.46      0.00
  J-94                 1.00   1130.55     82.85      0.00
  J-940                0.53   1127.64     80.93      0.00
  J-941                0.53   1132.43     53.50      0.00
  J-942                0.08   1130.52     56.16      0.00
  J-943                0.18   1132.01     65.73      0.00
  J-944                0.00   1131.13     66.93      0.00
  J-945                0.12   1131.16     58.66      0.00
  J-946                0.15   1132.17     62.83      0.00
  J-947                0.69   1132.17     69.28      0.00
  J-948                0.54   1131.55     69.36      0.00
  J-949                0.82   1131.55     59.38      0.00
  J-95                 0.22   1130.58     78.86      0.00
  J-950                0.59   1145.86     65.44      0.00
  J-951                1.93   1145.86     91.90      0.00
  J-952                0.37   1131.55     71.43      0.00
  J-953                0.64   1134.15     74.11      0.00
  J-954                0.13   1145.86     86.57      0.00
  J-955                0.10   1132.86     57.38      0.00
  J-956                0.12   1134.50     85.23      0.00
  J-957                0.13   1133.04     62.59      0.00
  J-958                0.38   1133.04     65.43      0.00
  J-959                0.84   1132.07     74.15      0.00
  J-96                 0.43   1130.81     73.57      0.00
  J-960                0.39   1133.11     70.54      0.00
  J-961                0.55   1133.58     75.42      0.00
  J-962                0.17   1134.53     86.40      0.00
  J-963                0.12   1134.49     78.18      0.00
  J-964                0.56   1134.50     78.00      0.00
  J-965                0.18   1134.53     89.85      0.00
  J-966                0.38   1130.88     79.38      0.00
  J-967                0.09   1133.41     70.76      0.00
  J-968                0.51   1134.23     75.87      0.00
  J-969                0.53   1130.53     40.64      0.00
  J-97                 1.06   1130.79     73.26      0.00
  J-970                0.61   1130.53     64.52      0.00
  J-971                0.08   1130.53     69.16      0.00
  J-972                0.60   1130.53     67.32      0.00
  J-973                0.35   1130.52     44.10      0.00
  J-974                0.56   1130.52     46.56      0.00
  J-975                0.40   1130.53     54.70      0.00
  J-976                0.20   1130.53     68.27      0.00
  J-977                0.31   1130.53     60.89      0.00
  J-978                0.79   1134.43     81.24      0.00
  J-979                0.76   1134.45     96.19      0.00
  J-98                 0.47   1134.23     78.43      0.00
  J-980                0.85   1130.53     40.44      0.00
  J-981                0.41   1130.53     65.24      0.00
  J-982                0.10   1133.41     58.11      0.00
  J-983                0.83   1133.41     59.93      0.00
  J-984                0.12   1134.53     84.09      0.00
  J-985                0.32   1134.53     92.10      0.00
  J-986                0.48   1134.54     60.07      0.00
  J-987                0.49   1131.55     70.21      0.00
  J-988                0.89   1131.95     62.14      0.00
  J-989                0.69   1131.93     65.86      0.00
  J-99                 0.20   1130.53     85.29      0.00
  J-990                0.05   1130.53     63.39      0.00
  J-991                0.09   1131.97     67.97      0.00
  J-992                0.36   1130.81     78.42      0.00
  J-993                0.26   1130.79     54.07      0.00
  J-994                0.08   1130.79     54.92      0.00
  J-995                0.39   1130.52     65.78      0.00
  J-996                0.14   1130.72     54.31      0.00
  J-997                0.13   1130.79     48.05      0.00
  J-998                0.45   1131.36     59.11      0.00
  J-999                0.95   1132.66     66.17      0.00
  O-Pump-1             0.00    851.43    107.79      0.00
  O-Pump-2             0.00   1146.89     63.57      0.00
  O-Pump-4             0.00   1134.53    129.83      0.00
  O-Pump-5             0.00    929.17     41.12      0.00
  I-Pump-1             0.00    577.49    -10.91      0.00
  I-Pump-2             0.00    914.21    -37.25      0.00
  I-Pump-4             0.00    836.12      0.53      0.00
  I-Pump-5             0.00    836.10      0.80      0.00
  R-1              -1083.08    577.58     -0.00      0.00  Reservoir
  R-2               -617.11    836.12     -0.00      0.00  Reservoir
  T-1               -382.04   1130.94     60.05      0.00  Tank
  T-2                -65.28   1130.55     51.91      0.00  Tank
  T-3               1534.81   1125.69     60.20      0.00  Tank
  T-4                -51.19   1127.64     64.40      0.00  Tank
  T-5                  0.00   1110.00     65.52      0.00  Tank
   
  Analysis ended Thu Jun 20 20:49:00 2019
