  Page 1                                    Mon Jun 24 21:31:08 2019

  ******************************************************************
  *                           E P A N E T                          *
  *                   Hydraulic and Water Quality                  *
  *                   Analysis for Pipe Networks                   *
  *                         Version 2.00.12                        *
  ******************************************************************
  
  Analysis begun Mon Jun 24 21:31:09 2019

   
  Hydraulic Status:
  -----------------------------------------------------------------------
     0:00:00: Pump ~@Pump-2 changed by Tank T-1 control
     0:00:00: Pump ~@Pump-4 changed by Tank T-5 control
     0:00:00: Balancing the network:
              Trial  1: relative flow change = 1.766672
              Trial  2: relative flow change = 0.372660
              Trial  3: relative flow change = 0.086954
              Trial  4: relative flow change = 0.015411
              Trial  5: relative flow change = 0.003216
              Trial  6: relative flow change = 0.000954
              Trial  7: relative flow change = 0.000242
              Trial  8: relative flow change = 0.000086
     0:00:00: Balanced after 8 trials
     0:00:00: Reservoir R-1 is emptying
     0:00:00: Reservoir R-2 is filling
     0:00:00: Tank T-1 is emptying at 157.66 ft
     0:00:00: Tank T-2 is emptying at 129.25 ft
     0:00:00: Tank T-3 is filling at 133.25 ft
     0:00:00: Tank T-4 is filling at 145.98 ft
     0:00:00: Tank T-5 is filling at 141.20 ft
     0:00:00: Pump ~@Pump-2 closed
     0:00:00: Pump ~@Pump-4 closed
   
     1:00:00: Balancing the network:
              Trial  1: relative flow change = 0.454546
              Trial  2: relative flow change = 0.151907
              Trial  3: relative flow change = 0.038558
              Trial  4: relative flow change = 0.004585
              Trial  5: relative flow change = 0.000324
              Trial  6: relative flow change = 0.000016
     1:00:00: Balanced after 6 trials
   
     1:41:24: Pump ~@Pump-2 changed by Tank T-1 control
     1:41:24: Balancing the network:
              Trial  1: relative flow change = 0.358740
              Trial  2: relative flow change = 0.120470
              Trial  3: relative flow change = 0.051806
              Trial  4: relative flow change = 0.015893
              Trial  5: relative flow change = 0.007357
              Trial  6: relative flow change = 0.012195
              Trial  7: relative flow change = 0.023807
              Trial  8: relative flow change = 0.045957
              Trial  9: relative flow change = 0.085498
              Trial 10: relative flow change = 0.145399
              Trial 11: relative flow change = 0.201027
              Trial 12: relative flow change = 0.179252
              Trial 13: relative flow change = 0.095578
              Trial 14: relative flow change = 0.017985
              Trial 15: relative flow change = 0.001273
              Trial 16: relative flow change = 0.000081
     1:41:24: Balanced after 16 trials
     1:41:24: Reservoir R-2 is emptying
     1:41:24: Tank T-1 is filling at 137.66 ft
     1:41:24: Tank T-3 is emptying at 143.85 ft
     1:41:24: Pump ~@Pump-2 changed from closed to open
   
     2:00:00: Balancing the network:
              Trial  1: relative flow change = 0.143244
              Trial  2: relative flow change = 0.058172
              Trial  3: relative flow change = 0.010450
              Trial  4: relative flow change = 0.001600
              Trial  5: relative flow change = 0.000181
              Trial  6: relative flow change = 0.000015
     2:00:00: Balanced after 6 trials
     2:00:00: Tank T-1 is emptying at 137.97 ft
   
     2:15:30: Balancing the network:
              Trial  1: relative flow change = 0.035126
              Trial  2: relative flow change = 0.001842
              Pipe P-200 switched from open to closed
              Trial  3: relative flow change = 0.829643
              Trial  4: relative flow change = 0.202529
              Trial  5: relative flow change = 0.033311
              Trial  6: relative flow change = 0.001844
              Trial  7: relative flow change = 0.000034
     2:15:30: Balanced after 7 trials
     2:15:30: Tank T-1 is filling at 137.82 ft
     2:15:30: Tank T-3 is filling at 143.03 ft
     2:15:30: Tank T-5 is closed at 151.20 ft
     2:15:30: Pipe P-200 changed from open to temporarily closed
   
     3:00:00: Balancing the network:
              Trial  1: relative flow change = 0.110699
              Trial  2: relative flow change = 0.023412
              Trial  3: relative flow change = 0.005378
              Trial  4: relative flow change = 0.000631
              Trial  5: relative flow change = 0.000018
     3:00:00: Balanced after 5 trials
   
     4:00:00: Balancing the network:
              Trial  1: relative flow change = 0.075186
              Trial  2: relative flow change = 0.008341
              Trial  3: relative flow change = 0.000391
              Trial  4: relative flow change = 0.000007
     4:00:00: Balanced after 4 trials
   
     5:00:00: Balancing the network:
              Trial  1: relative flow change = 0.117936
              Trial  2: relative flow change = 0.009376
              Trial  3: relative flow change = 0.000568
              Trial  4: relative flow change = 0.000024
     5:00:00: Balanced after 4 trials
   
     6:00:00: Balancing the network:
              Trial  1: relative flow change = 0.158589
              Trial  2: relative flow change = 0.028937
              Trial  3: relative flow change = 0.002796
              Trial  4: relative flow change = 0.000147
              Trial  5: relative flow change = 0.000002
     6:00:00: Balanced after 5 trials
   
     7:00:00: Balancing the network:
              Trial  1: relative flow change = 0.354844
              Trial  2: relative flow change = 0.083940
              Trial  3: relative flow change = 0.019168
              Trial  4: relative flow change = 0.002536
              Trial  5: relative flow change = 0.000208
              Trial  6: relative flow change = 0.000003
     7:00:00: Balanced after 6 trials
     7:00:00: Tank T-1 is emptying at 143.22 ft
   
     7:35:23: Balancing the network:
              Trial  1: relative flow change = 0.205804
              Trial  2: relative flow change = 0.132448
              Trial  3: relative flow change = 0.040504
              Trial  4: relative flow change = 0.009583
              Trial  5: relative flow change = 0.001945
              Trial  6: relative flow change = 0.000195
              Trial  7: relative flow change = 0.000007
     7:35:23: Balanced after 7 trials
     7:35:23: Tank T-1 is filling at 142.37 ft
     7:35:23: Tank T-3 is emptying at 148.25 ft
   
     8:00:00: Balancing the network:
              Trial  1: relative flow change = 0.378677
              Trial  2: relative flow change = 0.098450
              Trial  3: relative flow change = 0.018921
              Trial  4: relative flow change = 0.003079
              Trial  5: relative flow change = 0.000393
              Trial  6: relative flow change = 0.000030
     8:00:00: Balanced after 6 trials
     8:00:00: Tank T-1 is emptying at 142.71 ft
     8:00:00: Tank T-3 is filling at 147.56 ft
   
     9:00:00: Balancing the network:
              Trial  1: relative flow change = 0.380693
              Trial  2: relative flow change = 0.125104
              Trial  3: relative flow change = 0.029277
              Trial  4: relative flow change = 0.002782
              Trial  5: relative flow change = 0.000076
     9:00:00: Balanced after 5 trials
     9:00:00: Tank T-1 is filling at 140.79 ft
     9:00:00: Tank T-3 is emptying at 147.86 ft
   
    10:00:00: Balancing the network:
              Trial  1: relative flow change = 0.438675
              Trial  2: relative flow change = 0.241794
              Trial  3: relative flow change = 0.076796
              Trial  4: relative flow change = 0.009377
              Trial  5: relative flow change = 0.000228
              Trial  6: relative flow change = 0.000001
    10:00:00: Balanced after 6 trials
    10:00:00: Tank T-1 is emptying at 141.95 ft
    10:00:00: Tank T-3 is filling at 144.68 ft
    10:00:00: Tank T-4 is emptying at 154.69 ft
   
    10:59:10: Balancing the network:
              Trial  1: relative flow change = 0.593251
              Trial  2: relative flow change = 0.403059
              Trial  3: relative flow change = 0.183787
              Trial  4: relative flow change = 0.042114
              Trial  5: relative flow change = 0.003902
              Trial  6: relative flow change = 0.000309
              Trial  7: relative flow change = 0.000009
    10:59:10: Balanced after 7 trials
    10:59:10: Tank T-1 is filling at 138.47 ft
    10:59:10: Tank T-3 is emptying at 148.25 ft
    10:59:10: Tank T-4 is filling at 153.76 ft
   
    11:00:00: Balancing the network:
              Trial  1: relative flow change = 0.005820
              Trial  2: relative flow change = 0.000042
    11:00:00: Balanced after 2 trials
   
    12:00:00: Balancing the network:
              Trial  1: relative flow change = 0.541674
              Trial  2: relative flow change = 0.654517
              Trial  3: relative flow change = 0.472986
              Trial  4: relative flow change = 0.225917
              Trial  5: relative flow change = 0.071984
              Trial  6: relative flow change = 0.015170
              Trial  7: relative flow change = 0.001370
              Trial  8: relative flow change = 0.000019
    12:00:00: Balanced after 8 trials
    12:00:00: Tank T-1 is emptying at 141.07 ft
    12:00:00: Tank T-3 is filling at 143.00 ft
    12:00:00: Tank T-4 is emptying at 153.87 ft
   
    13:00:00: Balancing the network:
              Trial  1: relative flow change = 0.645991
              Trial  2: relative flow change = 0.515465
              Trial  3: relative flow change = 0.295505
              Trial  4: relative flow change = 0.091141
              Trial  5: relative flow change = 0.011658
              Trial  6: relative flow change = 0.000337
              Trial  7: relative flow change = 0.000022
    13:00:00: Balanced after 7 trials
    13:00:00: Tank T-1 is filling at 137.24 ft
    13:00:00: Tank T-3 is emptying at 147.32 ft
    13:00:00: Tank T-4 is filling at 152.79 ft
   
    14:00:00: Balancing the network:
              Trial  1: relative flow change = 0.585707
              Trial  2: relative flow change = 0.733475
              Trial  3: relative flow change = 0.588889
              Trial  4: relative flow change = 0.321095
              Trial  5: relative flow change = 0.131341
              Trial  6: relative flow change = 0.044658
              Trial  7: relative flow change = 0.014919
              Trial  8: relative flow change = 0.001962
              Trial  9: relative flow change = 0.000052
    14:00:00: Balanced after 9 trials
    14:00:00: Tank T-1 is emptying at 140.29 ft
    14:00:00: Tank T-3 is filling at 141.99 ft
    14:00:00: Tank T-4 is emptying at 152.92 ft
   
    15:00:00: Balancing the network:
              Trial  1: relative flow change = 0.637549
              Trial  2: relative flow change = 0.572888
              Trial  3: relative flow change = 0.369964
              Trial  4: relative flow change = 0.137066
              Trial  5: relative flow change = 0.024907
              Trial  6: relative flow change = 0.001198
              Trial  7: relative flow change = 0.000023
    15:00:00: Balanced after 7 trials
    15:00:00: Tank T-1 is filling at 136.57 ft
    15:00:00: Tank T-3 is emptying at 146.55 ft
    15:00:00: Tank T-4 is filling at 151.87 ft
   
    16:00:00: Balancing the network:
              Trial  1: relative flow change = 0.600159
              Trial  2: relative flow change = 0.723677
              Trial  3: relative flow change = 0.580231
              Trial  4: relative flow change = 0.312178
              Trial  5: relative flow change = 0.114936
              Trial  6: relative flow change = 0.028253
              Trial  7: relative flow change = 0.002885
              Trial  8: relative flow change = 0.000186
              Trial  9: relative flow change = 0.000007
    16:00:00: Balanced after 9 trials
    16:00:00: Tank T-1 is emptying at 139.60 ft
    16:00:00: Tank T-3 is filling at 141.23 ft
    16:00:00: Tank T-4 is emptying at 152.07 ft
   
    17:00:00: Balancing the network:
              Trial  1: relative flow change = 0.618301
              Trial  2: relative flow change = 0.552052
              Trial  3: relative flow change = 0.332276
              Trial  4: relative flow change = 0.111434
              Trial  5: relative flow change = 0.019988
              Trial  6: relative flow change = 0.001981
              Trial  7: relative flow change = 0.000045
    17:00:00: Balanced after 7 trials
    17:00:00: Tank T-1 is filling at 135.74 ft
    17:00:00: Tank T-3 is emptying at 145.77 ft
    17:00:00: Tank T-4 is filling at 151.04 ft
   
    18:00:00: Balancing the network:
              Trial  1: relative flow change = 0.568698
              Trial  2: relative flow change = 0.549930
              Trial  3: relative flow change = 0.322681
              Trial  4: relative flow change = 0.125975
              Trial  5: relative flow change = 0.030045
              Trial  6: relative flow change = 0.004126
              Trial  7: relative flow change = 0.000123
              Trial  8: relative flow change = 0.000000
    18:00:00: Balanced after 8 trials
    18:00:00: Tank T-1 is emptying at 138.38 ft
    18:00:00: Tank T-3 is filling at 140.31 ft
    18:00:00: Tank T-4 is emptying at 151.21 ft
   
    19:00:00: Balancing the network:
              Trial  1: relative flow change = 0.570538
              Trial  2: relative flow change = 0.376059
              Trial  3: relative flow change = 0.147559
              Trial  4: relative flow change = 0.045230
              Trial  5: relative flow change = 0.012067
              Trial  6: relative flow change = 0.001784
              Trial  7: relative flow change = 0.000095
    19:00:00: Balanced after 7 trials
    19:00:00: Tank T-1 is filling at 133.99 ft
    19:00:00: Tank T-3 is emptying at 144.33 ft
   
    20:00:00: Balancing the network:
              Trial  1: relative flow change = 0.404008
              Trial  2: relative flow change = 0.312856
              Trial  3: relative flow change = 0.065091
              Trial  4: relative flow change = 0.009149
              Trial  5: relative flow change = 0.000912
              Trial  6: relative flow change = 0.000120
              Trial  7: relative flow change = 0.000004
    20:00:00: Balanced after 7 trials
    20:00:00: Tank T-1 is emptying at 135.68 ft
    20:00:00: Tank T-3 is filling at 138.73 ft
   
    20:42:39: Balancing the network:
              Trial  1: relative flow change = 0.407390
              Trial  2: relative flow change = 0.271311
              Trial  3: relative flow change = 0.116242
              Trial  4: relative flow change = 0.032825
              Trial  5: relative flow change = 0.006702
              Trial  6: relative flow change = 0.000449
              Trial  7: relative flow change = 0.000004
    20:42:39: Balanced after 7 trials
    20:42:39: Tank T-1 is filling at 132.66 ft
    20:42:39: Tank T-3 is emptying at 140.84 ft
   
    21:00:00: Balancing the network:
              Trial  1: relative flow change = 0.103578
              Trial  2: relative flow change = 0.013235
              Trial  3: relative flow change = 0.000818
              Trial  4: relative flow change = 0.000032
    21:00:00: Balanced after 4 trials
   
    22:00:00: Balancing the network:
              Trial  1: relative flow change = 0.683286
              Trial  2: relative flow change = 0.391688
              Trial  3: relative flow change = 0.150477
              Trial  4: relative flow change = 0.042752
              Trial  5: relative flow change = 0.006763
              Trial  6: relative flow change = 0.000771
              Trial  7: relative flow change = 0.000208
              Trial  8: relative flow change = 0.000014
    22:00:00: Balanced after 8 trials
    22:00:00: Tank T-1 is emptying at 133.01 ft
    22:00:00: Tank T-3 is filling at 137.54 ft
   
    22:45:37: Balancing the network:
              Trial  1: relative flow change = 0.369315
              Trial  2: relative flow change = 0.276963
              Trial  3: relative flow change = 0.123114
              Trial  4: relative flow change = 0.023980
              Trial  5: relative flow change = 0.001854
              Trial  6: relative flow change = 0.000156
              Trial  7: relative flow change = 0.000006
    22:45:37: Balanced after 7 trials
    22:45:37: Tank T-1 is filling at 132.66 ft
    22:45:37: Tank T-3 is emptying at 139.70 ft
    22:45:37: Tank T-4 is filling at 146.77 ft
   
    23:00:00: Balancing the network:
              Trial  1: relative flow change = 0.345753
              Trial  2: relative flow change = 0.142694
              Trial  3: relative flow change = 0.041514
              Trial  4: relative flow change = 0.005782
              Trial  5: relative flow change = 0.000488
              Trial  6: relative flow change = 0.000040
    23:00:00: Balanced after 6 trials
    23:00:00: Tank T-3 is filling at 139.09 ft
   
    24:00:00: Balancing the network:
              Trial  1: relative flow change = 0.389195
              Trial  2: relative flow change = 0.155708
              Trial  3: relative flow change = 0.039287
              Trial  4: relative flow change = 0.006142
              Trial  5: relative flow change = 0.000429
              Trial  6: relative flow change = 0.000012
    24:00:00: Balanced after 6 trials
   
   
  Node Results at 0:00:00 hrs:
  --------------------------------------------------------
                     Demand      Head  Pressure       AGE
  Node                  gpm        ft       psi       hrs
  --------------------------------------------------------
  J-1                  0.30   1132.74     56.23      0.00
  J-10                 0.17   1132.27     66.12      0.00
  J-100                0.12   1131.31     75.91      0.00
  J-1000               0.18   1110.09     59.78      0.00
  J-1001               0.21   1129.13     69.99      0.00
  J-1002               0.16   1125.01     82.78      0.00
  J-1003               0.37   1145.54     70.09      0.00
  J-1004               0.86   1131.60     74.07      0.00
  J-1005               0.05   1124.51     65.53      0.00
  J-1006               0.42   1132.42     60.35      0.00
  J-1007               0.08   1132.07     56.20      0.00
  J-1008               0.00   1139.04     69.20      0.00
  J-1009               0.64   1113.80     74.41      0.00
  J-101                0.20   1131.31     67.07      0.00
  J-1010               0.32   1139.97     75.46      0.00
  J-1011               0.49   1134.86     57.32      0.00
  J-1012               0.36   1123.54     88.12      0.00
  J-1013               1.05   1123.54     89.58      0.00
  J-1014               0.27   1130.92     77.12      0.00
  J-1015               0.18   1130.92     74.59      0.00
  J-1016               0.18   1139.97     61.06      0.00
  J-1017               3.01   1118.46     72.14      0.00
  J-1018               0.51   1132.06     56.74      0.00
  J-1019               0.24   1132.08     64.29      0.00
  J-102                0.55   1131.31     60.26      0.00
  J-1020               0.65   1125.88     66.78      0.00
  J-1021               0.29   1132.08     65.00      0.00
  J-1022               0.29   1129.09     57.02      0.00
  J-1023               0.32   1129.09     58.29      0.00
  J-1024               0.09   1124.15     76.96      0.00
  J-1025               0.35   1124.15     71.46      0.00
  J-1026               0.17   1126.46     76.47      0.00
  J-1027               0.50   1139.42     77.63      0.00
  J-1028               0.20   1139.42     68.47      0.00
  J-1029               0.27   1129.75     92.27      0.00
  J-103                0.70   1128.96     50.28      0.00
  J-1030               0.07   1129.75     93.58      0.00
  J-1031               0.75   1125.72     76.47      0.00
  J-1032               0.28   1123.54     86.24      0.00
  J-1033               0.44   1130.15     61.57      0.00
  J-1034               0.10   1139.42     48.86      0.00
  J-1035               0.77   1127.24     73.24      0.00
  J-1036               0.70   1131.50     66.91      0.00
  J-1037               0.60   1129.93     79.61      0.00
  J-1038               0.39   1137.93     65.25      0.00
  J-1039               0.19   1131.53     84.03      0.00
  J-104                0.62   1128.68     67.93      0.00
  J-1040               0.71   1130.05     90.63      0.00
  J-1041               0.10   1129.95     70.55      0.00
  J-1042               0.22   1129.93     81.13      0.00
  J-1043               0.14   1130.19     62.80      0.00
  J-1044               0.16   1131.50     66.41      0.00
  J-1045               0.42   1123.58     82.11      0.00
  J-1046               0.85   1129.91     67.00      0.00
  J-1047               0.54   1131.31     72.15      0.00
  J-1048               0.23   1132.56     55.11      0.00
  J-1049               0.30   1125.88     73.23      0.00
  J-105                0.44   1128.68     59.27      0.00
  J-1050               0.24   1129.92     65.56      0.00
  J-1051               0.57   1130.15     49.94      0.00
  J-1052               0.67   1132.02     58.65      0.00
  J-1053               0.38   1129.73     54.31      0.00
  J-1054               0.12   1129.92     86.10      0.00
  J-1055               0.74   1129.95     88.63      0.00
  J-1056               0.85   1125.25     74.31      0.00
  J-1057               0.24   1125.25     79.60      0.00
  J-1058               0.72   1138.59     71.51      0.00
  J-1059               0.32   1138.61     75.34      0.00
  J-106                0.30   1136.12     75.89      0.00
  J-1060               0.30   1131.67     55.38      0.00
  J-1061               0.14   1139.42     42.47      0.00
  J-1062               0.30   1128.66     67.01      0.00
  J-1063               0.73   1128.66     66.53      0.00
  J-1064               0.18   1139.44     65.04      0.00
  J-1065               0.37   1129.11     56.82      0.00
  J-1066               0.40   1125.01     80.18      0.00
  J-1067               0.31   1125.01     94.60      0.00
  J-1068               0.10   1125.01     89.66      0.00
  J-1069               0.25   1139.44     53.53      0.00
  J-107                0.89   1128.70     55.22      0.00
  J-1070               0.48   1139.43     52.51      0.00
  J-1071               0.41   1106.83     52.23      0.00
  J-1072               0.61   1106.83     62.25      0.00
  J-1073               0.14   1133.03     60.15      0.00
  J-1074               0.58   1139.41     46.25      0.00
  J-1075               0.51   1139.42     62.36      0.00
  J-1076               0.40   1139.42     58.15      0.00
  J-1077               0.44   1125.38     65.09      0.00
  J-1078               1.24   1125.38     84.22      0.00
  J-1079               0.81   1130.34     62.14      0.00
  J-108                0.61   1128.69     59.86      0.00
  J-1080               0.57   1125.01     72.94      0.00
  J-1081               0.39   1110.72     72.16      0.00
  J-1082               0.50   1110.91     65.84      0.00
  J-1083               0.32   1129.76     86.39      0.00
  J-1084               0.00   1135.78     77.43      0.00
  J-1085               0.04   1139.50     59.86      0.00
  J-1086               0.51   1129.92     68.88      0.00
  J-1087               0.37   1139.42     57.37      0.00
  J-1088             181.81   1124.61     46.62      0.00
  J-1089               0.14   1139.42     68.67      0.00
  J-109                0.57   1128.68     56.51      0.00
  J-1090               0.15   1125.38     62.56      0.00
  J-1091               0.31   1129.91     54.06      0.00
  J-1092               0.54   1125.01     86.48      0.00
  J-1093               0.12   1124.52     79.44      0.00
  J-1094               0.29   1135.20     79.90      0.00
  J-1095               0.18   1139.42     47.37      0.00
  J-1096               0.15   1127.02     70.97      0.00
  J-1097               0.08   1125.27     74.23      0.00
  J-1098               0.49   1128.77     56.06      0.00
  J-1099               0.04   1124.35     72.32      0.00
  J-11                 1.27   1132.15     68.81      0.00
  J-110                0.25   1131.31     60.94      0.00
  J-1100               0.34   1131.60     78.55      0.00
  J-1101               0.42   1122.79     84.90      0.00
  J-1102               0.16   1132.06     55.22      0.00
  J-1103               0.40   1139.51     58.62      0.00
  J-1104               0.08   1126.08     59.20      0.00
  J-1105               0.12   1127.52     63.55      0.00
  J-1106               0.14   1125.01     72.14      0.00
  J-1107               0.10   1139.42     79.24      0.00
  J-1108               0.75   1132.27     55.35      0.00
  J-1109               0.52   1139.91     56.38      0.00
  J-111                0.04   1131.31     60.67      0.00
  J-1110               0.22   1129.92     70.65      0.00
  J-1111               0.15   1130.46     77.79      0.00
  J-1112               0.21   1129.14     61.03      0.00
  J-1113               0.15   1139.97     60.06      0.00
  J-1114               0.32   1139.97     54.24      0.00
  J-1115               0.12   1124.35     69.27      0.00
  J-1116               0.45   1139.96     64.35      0.00
  J-1117               0.24   1139.96     64.77      0.00
  J-1118               0.15   1139.42     61.56      0.00
  J-1119               0.72   1130.32     69.17      0.00
  J-112                0.86   1130.76     67.87      0.00
  J-1120               0.57   1137.47     51.84      0.00
  J-1121               0.24   1129.13     72.55      0.00
  J-1122               0.62   1129.44     80.31      0.00
  J-1123               0.19   1129.26     71.45      0.00
  J-1124               0.16   1129.07     75.66      0.00
  J-1125               0.00   1135.75     77.39      0.00
  J-1126               0.30   1126.30     52.78      0.00
  J-1127               0.23   1126.30     54.81      0.00
  J-1128               0.65   1131.14     75.72      0.00
  J-1129               0.39   1126.33     62.15      0.00
  J-113                0.37   1130.76     88.21      0.00
  J-1130               0.07   1126.33     61.02      0.00
  J-1131               0.17   1125.01     80.77      0.00
  J-1132               0.88   1122.48     74.36      0.00
  J-1133               0.16   1139.97     74.78      0.00
  J-1134               0.15   1126.31     54.61      0.00
  J-1135               0.06   1126.33     59.46      0.00
  J-1136               0.33   1137.93     61.66      0.00
  J-1137               0.53   1107.13     57.23      0.00
  J-1138               0.29   1139.51     63.99      0.00
  J-1139               0.39   1141.14     68.36      0.00
  J-114                0.82   1131.27     78.99      0.00
  J-1140               1.14   1129.91     64.87      0.00
  J-1141               0.00   1127.41     68.83      0.00
  J-1142               0.21   1141.38     68.49      0.00
  J-1143               0.33   1133.45     58.71      0.00
  J-1144               0.03   1141.25     68.25      0.00
  J-1145               0.00   1134.95     67.44      0.00
  J-1146               0.16   1124.24     81.05      0.00
  J-1147               0.30   1124.24     70.49      0.00
  J-1148               0.35   1130.15     65.61      0.00
  J-1149               0.06   1110.91     61.95      0.00
  J-115                0.20   1129.93     87.85      0.00
  J-1150               0.05   1110.50     62.60      0.00
  J-1151               0.21   1124.02     62.47      0.00
  J-1152               0.44   1129.94     86.54      0.00
  J-1153               0.18   1139.97     69.99      0.00
  J-1154               0.04   1132.74     51.45      0.00
  J-1155               0.61   1123.54     75.34      0.00
  J-1156               0.19   1135.76     71.65      0.00
  J-1157               0.50   1139.97     60.79      0.00
  J-1158               1.10   1128.65     70.78      0.00
  J-1159               0.13   1139.97     66.71      0.00
  J-116                0.28   1136.92     75.40      0.00
  J-1160               0.14   1139.97     60.49      0.00
  J-1161               0.81   1129.91     60.96      0.00
  J-1162               0.09   1129.91     58.41      0.00
  J-1163               0.00   1139.87     69.74      0.00
  J-1164               0.82   1139.97     69.62      0.00
  J-1165               0.38   1127.84     68.29      0.00
  J-1166               0.21   1127.84     75.63      0.00
  J-1167               0.61   1139.94     43.45      0.00
  J-1168               0.46   1139.43     52.22      0.00
  J-1169               0.13   1139.43     43.53      0.00
  J-117                0.23   1132.47     54.18      0.00
  J-1170               0.39   1139.42     70.64      0.00
  J-1171               0.17   1139.42     73.67      0.00
  J-1172               0.34   1119.20     78.42      0.00
  J-1173               0.04   1126.30     52.99      0.00
  J-1174               0.10   1128.65     77.71      0.00
  J-1175               0.10   1128.65     77.57      0.00
  J-1176               0.04   1127.84     68.17      0.00
  J-1177               0.32   1126.25     54.05      0.00
  J-1178               0.28   1139.43     52.37      0.00
  J-1179               0.14   1126.14     73.09      0.00
  J-118                0.14   1130.85     84.51      0.00
  J-1180               0.38   1129.09     52.60      0.00
  J-1181               0.08   1128.65     77.54      0.00
  J-1182               0.09   1128.63     58.99      0.00
  J-1183               0.21   1129.91     60.84      0.00
  J-1184               0.10   1139.96     62.67      0.00
  J-1185               0.30   1128.65     75.00      0.00
  J-1186               0.18   1125.24     69.38      0.00
  J-1187               0.10   1125.38     61.88      0.00
  J-1188               0.12   1125.01     78.73      0.00
  J-1189               0.06   1124.33     75.02      0.00
  J-119                0.39   1130.85     87.31      0.00
  J-1190               0.57   1124.30     70.81      0.00
  J-1191               1.41   1119.94     61.79      0.00
  J-1192               0.43   1119.94     74.04      0.00
  J-1193               0.40   1124.26     68.28      0.00
  J-1194               0.06   1125.27     70.86      0.00
  J-1195               0.56   1129.58     73.92      0.00
  J-1196               0.36   1128.59     50.13      0.00
  J-1197               0.37   1126.30     54.00      0.00
  J-1198               0.18   1124.26     63.60      0.00
  J-1199               0.44   1129.74     80.19      0.00
  J-12                 0.49   1132.21     63.67      0.00
  J-120                2.08   1129.62     64.73      0.00
  J-1200               0.65   1128.62     53.07      0.00
  J-1201               0.17   1129.19     55.29      0.00
  J-1202               0.00   1139.84     70.40      0.00
  J-1203               0.53   1128.73     69.99      0.00
  J-1204               0.28   1124.30     72.76      0.00
  J-1205               0.47   1128.66     59.17      0.00
  J-1206               0.21   1139.97     60.98      0.00
  J-1207               0.28   1139.44     50.94      0.00
  J-1208               0.44   1123.99     64.12      0.00
  J-1209               0.32   1139.95     64.18      0.00
  J-121                1.55   1135.64     78.00      0.00
  J-1210               0.54   1119.95     91.01      0.00
  J-1211               1.05   1119.95     90.96      0.00
  J-1212               0.38   1139.97     63.85      0.00
  J-1213               0.16   1139.42     67.39      0.00
  J-1214               0.06   1126.25     59.42      0.00
  J-1215               0.13   1126.97     71.53      0.00
  J-1216               0.88   1129.91     53.72      0.00
  J-1217               0.03   1113.80     74.76      0.00
  J-1218               0.34   1128.57     58.38      0.00
  J-1219               0.30   1139.44     53.55      0.00
  J-122                0.60   1131.87     59.48      0.00
  J-1220               0.03   1125.24     69.82      0.00
  J-1221               1.08   1139.94     41.83      0.00
  J-1222               0.79   1139.97     69.86      0.00
  J-1223               0.82   1128.83     67.75      0.00
  J-1224               0.11   1127.09     63.97      0.00
  J-1225               0.10   1139.97     54.95      0.00
  J-1226               0.35   1139.97     55.56      0.00
  J-1227               0.50   1128.85     70.91      0.00
  J-1228               0.34   1139.93     56.35      0.00
  J-1229               1.59   1139.94     45.92      0.00
  J-123                1.44   1131.88     55.72      0.00
  J-1230               0.49   1139.94     43.48      0.00
  J-1231               0.11   1127.03     67.87      0.00
  J-1232               0.27   1139.93     63.38      0.00
  J-1233               0.19   1139.97     74.09      0.00
  J-1234               0.46   1139.97     73.38      0.00
  J-1235               0.24   1129.91     71.53      0.00
  J-1236               0.08   1139.95     63.89      0.00
  J-1237               0.10   1128.85     64.82      0.00
  J-1238               0.14   1139.97     64.02      0.00
  J-1239               0.13   1127.79     61.42      0.00
  J-124                0.05   1132.07     56.70      0.00
  J-1240               0.04   1128.73     69.86      0.00
  J-1241               0.51   1139.86     69.87      0.00
  J-1242               0.55   1140.04     57.86      0.00
  J-1243               0.13   1140.28     64.17      0.00
  J-1244               0.26   1139.44     58.96      0.00
  J-1245               0.08   1139.44     59.18      0.00
  J-1246               0.88   1127.84     63.44      0.00
  J-1247               0.28   1127.84     57.81      0.00
  J-1248               0.20   1130.76     86.03      0.00
  J-1249               0.69   1129.50     88.42      0.00
  J-125                0.90   1132.07     55.96      0.00
  J-1250               0.46   1130.76     82.97      0.00
  J-1251               0.66   1129.91     76.30      0.00
  J-1252               0.18   1129.91     80.63      0.00
  J-1253               0.51   1128.68     65.27      0.00
  J-1254               0.07   1129.91     55.61      0.00
  J-1255               0.25   1133.30     63.89      0.00
  J-1256               0.20   1134.70     71.38      0.00
  J-1257               0.25   1131.40     61.13      0.00
  J-1258               0.04   1128.70     58.16      0.00
  J-1259               0.63   1129.00     49.75      0.00
  J-126                0.26   1130.63     92.30      0.00
  J-1260               0.57   1124.51     55.44      0.00
  J-1261               0.39   1133.52     58.54      0.00
  J-1262               0.95   1128.91     70.30      0.00
  J-1263               0.14   1129.02     61.30      0.00
  J-1264               0.76   1129.91     79.92      0.00
  J-1265               0.00   1135.73     77.43      0.00
  J-1266               0.25   1132.29     62.24      0.00
  J-1267               0.11   1129.94     80.26      0.00
  J-1268               0.23   1129.94     84.50      0.00
  J-1269               0.79   1129.95     87.24      0.00
  J-127                0.19   1130.63     84.11      0.00
  J-1270               0.97   1129.55     98.94      0.00
  J-1271               0.00   1139.79     71.93      0.00
  J-1272               0.34   1129.03     73.64      0.00
  J-1273               0.65   1139.84     70.53      0.00
  J-1274               0.05   1129.65     52.22      0.00
  J-1275               0.45   1128.70     58.09      0.00
  J-1276               0.38   1124.83     70.15      0.00
  J-1277               0.10   1139.93     59.68      0.00
  J-1278               0.24   1139.91     48.87      0.00
  J-1279               0.30   1125.01     83.91      0.00
  J-128                0.09   1130.63     84.13      0.00
  J-1280               0.15   1125.01     83.85      0.00
  J-1281               0.57   1139.94     42.69      0.00
  J-1282               0.47   1129.05     87.24      0.00
  J-1283               0.11   1125.01     76.64      0.00
  J-1284               0.60   1129.09     55.95      0.00
  J-1285               0.68   1129.00     53.75      0.00
  J-1286               0.09   1139.96     69.11      0.00
  J-1287               0.08   1129.70     76.25      0.00
  J-1288               0.23   1129.95     98.35      0.00
  J-1289               0.47   1128.69     57.21      0.00
  J-129                0.11   1138.47     59.62      0.00
  J-1290               0.39   1128.68     66.74      0.00
  J-1291               0.10   1129.94     94.49      0.00
  J-1292               0.13   1128.68     60.28      0.00
  J-1293               0.37   1130.37     69.46      0.00
  J-1294               0.18   1119.30     73.40      0.00
  J-1295               0.22   1124.61     44.44      0.00
  J-1296               0.04   1128.66     58.73      0.00
  J-1297               0.00   1135.80     82.58      0.00
  J-1298               0.03   1135.97     66.94      0.00
  J-1299               0.00   1130.33     64.09      0.00
  J-13                 0.76   1125.24     89.36      0.00
  J-130                0.00   1130.28     87.79      0.00
  J-1300               0.00   1130.19     66.28      0.00
  J-1301               0.00   1123.99     65.80      0.00
  J-1302               0.38   1132.03     79.99      0.00
  J-1303               0.00   1137.24     60.98      0.00
  J-1304               0.00   1137.03     57.77      0.00
  J-1305               0.00   1139.44     54.21      0.00
  J-1306               0.00   1139.79     53.84      0.00
  J-1307               0.00   1137.90     63.38      0.00
  J-1308               0.00   1139.93     61.46      0.00
  J-1309               0.00   1138.19     61.07      0.00
  J-131                0.13   1130.80     88.52      0.00
  J-1310               0.00   1139.44     54.23      0.00
  J-1311               0.00   1139.44     53.54      0.00
  J-1312               0.00   1138.42     69.42      0.00
  J-1313               0.00   1138.43     57.51      0.00
  J-1314               0.00   1135.76     80.95      0.00
  J-1315               0.00   1137.08     77.73      0.00
  J-1316               0.00   1138.39     60.62      0.00
  J-1317               0.00   1119.98     85.33      0.00
  J-1318               0.00   1119.96     82.85      0.00
  J-1319               0.00   1119.95     83.08      0.00
  J-132                0.67   1139.97     54.24      0.00
  J-133                0.88   1136.49     76.80      0.00
  J-134                0.13   1129.92     75.93      0.00
  J-135                0.30   1129.92     76.57      0.00
  J-136                0.35   1130.43     86.11      0.00
  J-137                0.37   1131.05     83.84      0.00
  J-138                0.33   1130.70     86.30      0.00
  J-139                0.14   1130.67     87.88      0.00
  J-14                 0.46   1125.24     80.56      0.00
  J-140                0.33   1131.42     76.12      0.00
  J-141                0.97   1129.99    100.83      0.00
  J-142                0.61   1129.43     76.83      0.00
  J-143                1.06   1131.94     71.18      0.00
  J-144                0.82   1126.14     75.09      0.00
  J-145                0.30   1119.92     92.93      0.00
  J-146                0.16   1125.02     67.76      0.00
  J-147                0.00   1131.35     58.16      0.00
  J-148                0.59   1131.32     67.08      0.00
  J-149                1.11   1129.05     55.26      0.00
  J-15                 0.10   1132.07     67.01      0.00
  J-150                0.61   1138.07     57.86      0.00
  J-151                0.59   1131.34     85.80      0.00
  J-152                0.74   1132.38     58.22      0.00
  J-153                0.55   1132.24     62.73      0.00
  J-154                1.19   1138.79     60.25      0.00
  J-155                0.46   1138.75     68.33      0.00
  J-156                0.16   1132.07     56.50      0.00
  J-157                0.23   1132.07     61.73      0.00
  J-158                0.37   1132.11     60.26      0.00
  J-159                0.50   1130.56     73.84      0.00
  J-16                 0.15   1132.07     67.04      0.00
  J-160                0.94   1130.56     73.05      0.00
  J-161                0.15   1139.44     54.05      0.00
  J-162                0.05   1136.59     78.09      0.00
  J-163                0.53   1131.31     73.75      0.00
  J-164                0.59   1128.27     70.46      0.00
  J-165                1.45   1139.42     48.86      0.00
  J-166                0.23   1131.02     84.52      0.00
  J-167                0.74   1127.82     69.65      0.00
  J-168                0.52   1128.62     59.47      0.00
  J-169                0.84   1131.69     63.86      0.00
  J-17                 0.10   1132.07     66.88      0.00
  J-170                0.07   1132.07     65.72      0.00
  J-171                0.46   1129.18     82.08      0.00
  J-172                0.43   1131.53     87.02      0.00
  J-173                0.50   1131.56     83.65      0.00
  J-174                0.47   1139.55     60.68      0.00
  J-175                0.31   1139.55     57.77      0.00
  J-176                0.50   1128.67     53.73      0.00
  J-177                0.65   1131.31     60.31      0.00
  J-178                0.51   1132.56     56.19      0.00
  J-179                0.35   1132.74     52.49      0.00
  J-18                 0.35   1129.12     80.32      0.00
  J-180                1.24   1129.13     65.96      0.00
  J-181                1.26   1129.13     70.14      0.00
  J-182                0.17   1132.06     61.31      0.00
  J-183                0.69   1131.50     66.48      0.00
  J-184                0.27   1131.50     63.29      0.00
  J-185                0.63   1129.61     54.06      0.00
  J-186                1.10   1132.39     52.74      0.00
  J-187                0.55   1129.17     87.02      0.00
  J-188                0.30   1133.37     54.62      0.00
  J-189                0.38   1129.07     80.20      0.00
  J-19                 0.85   1129.13     79.58      0.00
  J-190                0.84   1130.12     88.27      0.00
  J-191                0.72   1130.10     73.71      0.00
  J-192                0.35   1136.53     79.26      0.00
  J-193                0.71   1134.76     66.73      0.00
  J-194                0.55   1134.75     57.48      0.00
  J-195                0.42   1128.86     51.56      0.00
  J-196                0.05   1131.31     66.95      0.00
  J-197                0.03   1132.07     66.93      0.00
  J-198                0.00   1131.98     54.29      0.00
  J-199                0.88   1128.70     58.27      0.00
  J-2                  0.54   1132.74     51.69      0.00
  J-20                 0.97   1131.31     84.96      0.00
  J-200                0.48   1125.88     66.11      0.00
  J-201                0.00   1139.98     55.96      0.00
  J-202                0.00   1139.93     40.77      0.00
  J-203                0.46   1131.36     75.82      0.00
  J-204                0.12   1129.92     89.89      0.00
  J-205                0.30   1129.92     84.69      0.00
  J-206                0.49   1131.36     74.47      0.00
  J-207                0.52   1129.26     77.80      0.00
  J-208                0.25   1138.82     66.76      0.00
  J-209                0.40   1138.68     67.49      0.00
  J-21                 0.89   1131.31     75.94      0.00
  J-210                0.29   1131.34     80.46      0.00
  J-211                0.11   1132.07     58.99      0.00
  J-212                0.17   1130.70     77.59      0.00
  J-213                0.11   1130.92     76.04      0.00
  J-214                0.54   1128.65     52.96      0.00
  J-215                0.47   1131.85     62.17      0.00
  J-216                0.09   1130.61     82.29      0.00
  J-217                0.20   1131.86     69.56      0.00
  J-218                0.36   1131.51     71.19      0.00
  J-219                0.50   1130.76     89.58      0.00
  J-22                 0.74   1129.02     62.78      0.00
  J-220                0.61   1130.03     58.39      0.00
  J-221                0.32   1130.81     55.04      0.00
  J-222                0.65   1129.91     54.48      0.00
  J-223                0.90   1129.91     67.90      0.00
  J-224                0.96   1138.42     57.50      0.00
  J-225                0.93   1138.27     60.53      0.00
  J-226                0.34   1128.65     75.81      0.00
  J-227                0.16   1128.65     77.89      0.00
  J-228                0.42   1128.65     72.22      0.00
  J-229                0.82   1129.49    101.67      0.00
  J-23                 0.44   1129.00     68.35      0.00
  J-230                0.20   1125.89     63.31      0.00
  J-231                0.23   1125.91     61.38      0.00
  J-232                0.25   1124.52     72.10      0.00
  J-233                0.44   1124.52     68.82      0.00
  J-234                1.25   1138.66     70.53      0.00
  J-235                0.32   1139.11     75.78      0.00
  J-236                0.80   1135.24     64.31      0.00
  J-237                0.60   1136.34     65.94      0.00
  J-238                0.55   1128.77     51.65      0.00
  J-239                0.00   1128.79     52.15      0.00
  J-24                 0.63   1129.92     89.99      0.00
  J-240                0.30   1133.27     61.94      0.00
  J-241                0.22   1133.27     56.91      0.00
  J-242                3.03   1129.94    113.28      0.00
  J-243                0.91   1129.94     91.67      0.00
  J-244                0.79   1129.94     77.55      0.00
  J-245                2.01   1119.90     92.26      0.00
  J-246                0.35   1119.91     92.00      0.00
  J-247                0.18   1126.46     75.84      0.00
  J-248                0.40   1126.46     70.11      0.00
  J-249                1.01   1128.53     58.88      0.00
  J-25                 0.76   1129.92     89.89      0.00
  J-251                0.42   1134.82     69.24      0.00
  J-252                0.41   1129.94    111.92      0.00
  J-253                0.86   1135.90     74.09      0.00
  J-254                0.80   1129.05    102.12      0.00
  J-255                0.57   1106.74     59.89      0.00
  J-256                0.47   1110.83     73.37      0.00
  J-257                0.34   1110.50     62.56      0.00
  J-258                0.63   1134.96     65.61      0.00
  J-259                0.27   1135.93     73.27      0.00
  J-26                 1.03   1136.06     76.92      0.00
  J-260                0.29   1119.92     85.69      0.00
  J-261                0.22   1119.92     65.37      0.00
  J-262                0.43   1125.88     68.40      0.00
  J-263                0.77   1127.04     74.36      0.00
  J-264                0.32   1124.52     72.32      0.00
  J-265                0.05   1124.52     72.23      0.00
  J-266                0.39   1134.40     65.36      0.00
  J-267                0.73   1134.80     60.63      0.00
  J-268                0.00   1139.98     67.42      0.00
  J-269                0.49   1124.52     79.55      0.00
  J-27                 0.14   1136.06     81.37      0.00
  J-270                0.27   1124.52     84.34      0.00
  J-271                0.10   1128.65     75.75      0.00
  J-272                0.26   1128.65     74.81      0.00
  J-273                0.47   1129.92     77.95      0.00
  J-274                0.12   1129.92     80.63      0.00
  J-275                0.30   1124.34     72.49      0.00
  J-276                0.77   1124.52     64.66      0.00
  J-277                0.68   1131.72     68.22      0.00
  J-278                0.22   1131.72     60.25      0.00
  J-279                0.22   1136.91     75.41      0.00
  J-28                 0.14   1132.07     67.51      0.00
  J-280                0.43   1126.24     64.11      0.00
  J-281                0.76   1126.24     63.05      0.00
  J-282                0.79   1126.30     73.11      0.00
  J-283                0.23   1126.30     73.41      0.00
  J-284                0.24   1133.27     54.82      0.00
  J-285                0.15   1133.27     56.84      0.00
  J-286                0.37   1136.75     69.01      0.00
  J-287                0.43   1138.46     61.13      0.00
  J-288                0.11   1128.65     71.88      0.00
  J-289                0.86   1126.01     65.61      0.00
  J-29                 0.10   1132.07     54.84      0.00
  J-290                0.50   1125.83     68.38      0.00
  J-291                0.69   1129.94    110.76      0.00
  J-292                0.71   1129.94    103.78      0.00
  J-293                0.44   1129.92     84.17      0.00
  J-294                0.93   1124.35     78.92      0.00
  J-295                0.52   1125.25     70.12      0.00
  J-296                0.74   1125.38     78.89      0.00
  J-297                0.94   1125.24     86.78      0.00
  J-298                0.77   1129.93     90.30      0.00
  J-299                0.17   1129.93     90.43      0.00
  J-3                  0.16   1131.34     79.41      0.00
  J-30                 0.67   1139.44     55.56      0.00
  J-300                0.48   1124.52     69.98      0.00
  J-301                0.75   1124.52     75.48      0.00
  J-302                0.27   1129.94     95.13      0.00
  J-303                0.34   1129.94    101.51      0.00
  J-304                0.28   1124.52     74.04      0.00
  J-305                0.64   1127.04     55.42      0.00
  J-306                0.56   1134.26     59.87      0.00
  J-307                0.39   1134.61     62.09      0.00
  J-308                0.71   1138.77     67.39      0.00
  J-309                0.28   1127.51     55.36      0.00
  J-31                 1.07   1139.44     54.17      0.00
  J-310                0.16   1127.51     65.13      0.00
  J-311                0.12   1131.72     64.52      0.00
  J-312                0.84   1129.13     76.73      0.00
  J-313                0.56   1129.13     70.35      0.00
  J-314                0.57   1129.95     92.78      0.00
  J-315                0.51   1129.94     90.61      0.00
  J-316                0.40   1132.79     65.37      0.00
  J-317                1.32   1131.15     69.28      0.00
  J-318                0.47   1126.08     59.72      0.00
  J-319                0.57   1133.44     59.09      0.00
  J-32                 0.22   1136.95     74.28      0.00
  J-320                0.66   1129.05     63.27      0.00
  J-321                0.16   1124.33     72.35      0.00
  J-322                1.03   1133.96     63.31      0.00
  J-323                0.00   1134.76    491.69      0.00
  J-324                0.45   1139.90     70.58      0.00
  J-325                0.21   1139.88     70.57      0.00
  J-326                0.26   1139.44     53.65      0.00
  J-327                0.24   1129.92     79.61      0.00
  J-328                0.49   1129.92     83.67      0.00
  J-329                0.90   1129.14     63.57      0.00
  J-33                 0.33   1136.99     74.84      0.00
  J-330                0.42   1129.14     57.46      0.00
  J-331                0.33   1130.17     53.61      0.00
  J-332                0.32   1130.26     56.46      0.00
  J-333                0.76   1136.11     75.13      0.00
  J-334                1.25   1136.14     55.74      0.00
  J-335                0.45   1128.70     59.23      0.00
  J-336                0.90   1138.97     62.59      0.00
  J-337                0.68   1138.68     63.55      0.00
  J-338                0.39   1135.85     80.88      0.00
  J-339                0.20   1136.52     80.88      0.00
  J-34                 0.35   1139.42     54.52      0.00
  J-340                0.43   1127.80     56.20      0.00
  J-341                0.97   1131.92     70.71      0.00
  J-342                0.40   1132.16     60.61      0.00
  J-343                0.78   1133.94     65.09      0.00
  J-344                0.97   1133.90     68.81      0.00
  J-345                0.97   1129.92     73.42      0.00
  J-346                0.22   1139.97     53.67      0.00
  J-347                0.40   1139.97     56.61      0.00
  J-348                0.15   1128.67     64.84      0.00
  J-349                0.44   1128.67     71.20      0.00
  J-35                 0.08   1139.42     53.26      0.00
  J-350                0.37   1139.98     56.72      0.00
  J-351                0.45   1125.82     71.24      0.00
  J-352                0.20   1131.31     60.26      0.00
  J-353                0.53   1130.12     90.81      0.00
  J-354                0.42   1129.92     73.02      0.00
  J-355                1.02   1139.42     45.15      0.00
  J-356                0.70   1119.99     84.74      0.00
  J-357                0.44   1120.03     84.13      0.00
  J-358                0.45   1140.00     61.22      0.00
  J-359                0.34   1140.07     59.18      0.00
  J-36                 0.00   1128.37     62.11      0.00
  J-360                0.27   1129.92     84.47      0.00
  J-361                0.30   1129.92     83.66      0.00
  J-362                0.51   1130.37     62.13      0.00
  J-363                0.59   1130.53     55.64      0.00
  J-364                0.37   1124.52     76.25      0.00
  J-365                0.00   1147.86     67.67      0.00
  J-366                0.30   1146.19     68.15      0.00
  J-367                0.26   1128.66     72.72      0.00
  J-368                0.24   1128.66     73.56      0.00
  J-369                0.46   1125.79     62.49      0.00
  J-37                 0.84   1128.69     46.60      0.00
  J-370                0.33   1125.65     61.69      0.00
  J-371                0.83   1124.88     72.09      0.00
  J-372                0.58   1140.28     61.99      0.00
  J-373                1.28   1138.51     57.11      0.00
  J-374                1.15   1139.44     60.70      0.00
  J-375                0.08   1128.65     76.04      0.00
  J-376                0.18   1127.28     75.07      0.00
  J-377                0.60   1125.38     67.23      0.00
  J-378                1.60   1125.38     79.04      0.00
  J-379                0.27   1132.62     59.77      0.00
  J-38                 0.22   1139.42     53.11      0.00
  J-380                0.53   1138.56     57.52      0.00
  J-381                1.09   1138.62     65.12      0.00
  J-382                0.35   1131.70     66.75      0.00
  J-383                0.24   1145.20     68.63      0.00
  J-384                0.00   1130.61     89.40      0.00
  J-385                0.22   1129.92     76.17      0.00
  J-386                0.33   1129.92     76.21      0.00
  J-387                0.55   1127.52     62.62      0.00
  J-388                0.92   1127.54     67.97      0.00
  J-389                0.24   1128.65     74.24      0.00
  J-39                 0.32   1139.42     53.89      0.00
  J-390                0.17   1124.30     75.49      0.00
  J-391                0.99   1138.96     68.89      0.00
  J-392                0.65   1140.24     78.81      0.00
  J-393                0.66   1126.33     73.41      0.00
  J-394                0.81   1126.38     69.58      0.00
  J-395                0.78   1129.92     73.92      0.00
  J-396                0.51   1129.92     85.45      0.00
  J-397                0.49   1120.92     87.51      0.00
  J-398                0.27   1120.92     90.25      0.00
  J-399                0.47   1138.61     69.84      0.00
  J-4                  0.50   1131.35     82.84      0.00
  J-40                 0.72   1128.69     51.61      0.00
  J-400                0.32   1130.44     60.81      0.00
  J-401                0.34   1130.46     58.59      0.00
  J-402                0.41   1129.93     86.83      0.00
  J-403                0.06   1129.93     88.20      0.00
  J-404                0.20   1131.50     84.05      0.00
  J-405                0.44   1131.50     73.43      0.00
  J-406                0.14   1139.44     58.93      0.00
  J-407                0.78   1139.44     58.85      0.00
  J-408                0.26   1124.52     77.84      0.00
  J-409                0.55   1129.93     83.45      0.00
  J-41                 0.66   1129.18     83.31      0.00
  J-410                0.33   1129.93     83.13      0.00
  J-411                0.46   1127.54     70.70      0.00
  J-412                0.07   1129.94     85.50      0.00
  J-413                0.20   1129.94     83.61      0.00
  J-414                0.34   1131.99     64.63      0.00
  J-415                0.44   1131.49     72.07      0.00
  J-416                0.47   1138.67     67.42      0.00
  J-417                0.64   1137.92     52.99      0.00
  J-418                1.13   1137.93     57.94      0.00
  J-419                0.71   1129.58     68.72      0.00
  J-42                 0.56   1129.18     74.47      0.00
  J-420                0.16   1129.58     73.42      0.00
  J-421                0.29   1127.60     80.55      0.00
  J-422                0.52   1125.59     78.18      0.00
  J-423                1.45   1129.92     64.32      0.00
  J-424                0.80   1129.92     81.66      0.00
  J-425                0.10   1128.66     75.93      0.00
  J-426                0.20   1129.13     66.10      0.00
  J-427                0.57   1129.13     66.72      0.00
  J-428                0.14   1139.97     57.32      0.00
  J-429                0.28   1139.97     47.73      0.00
  J-43                 0.31   1132.03     67.80      0.00
  J-430                0.00   1130.92     86.22      0.00
  J-431                0.54   1138.66     67.66      0.00
  J-432                0.69   1137.93     58.44      0.00
  J-433                0.33   1129.65     51.26      0.00
  J-434                0.23   1133.03     66.15      0.00
  J-435                1.11   1134.17     65.00      0.00
  J-436                0.69   1138.29     62.09      0.00
  J-437                0.17   1126.18     69.95      0.00
  J-438                0.52   1126.18     72.11      0.00
  J-439                0.22   1137.00     77.81      0.00
  J-44                 0.30   1132.05     64.94      0.00
  J-440                0.23   1138.77     78.96      0.00
  J-441                0.49   1126.16     64.85      0.00
  J-442                0.92   1124.74     81.00      0.00
  J-443                0.18   1125.88     60.16      0.00
  J-444                0.67   1125.88     61.98      0.00
  J-445                0.62   1129.92     80.86      0.00
  J-446                0.29   1110.83     87.02      0.00
  J-447                0.24   1129.94     84.51      0.00
  J-448                0.56   1129.94    102.08      0.00
  J-449                0.07   1129.94     82.25      0.00
  J-45                 0.67   1129.02     66.26      0.00
  J-450                0.28   1129.94     87.68      0.00
  J-451                0.71   1127.43     56.72      0.00
  J-452                0.48   1124.35     80.03      0.00
  J-453                0.66   1123.80     85.27      0.00
  J-454                0.52   1124.74     71.61      0.00
  J-455                0.30   1125.48     79.86      0.00
  J-456                0.14   1125.48     75.63      0.00
  J-457                0.47   1127.00     71.75      0.00
  J-458                0.13   1125.06     63.47      0.00
  J-459                0.51   1124.02     66.41      0.00
  J-46                 1.24   1129.00     62.11      0.00
  J-460                0.00   1132.13     47.41      0.00
  J-461                0.52   1139.49     54.77      0.00
  J-462                0.28   1125.75     69.52      0.00
  J-463                0.89   1125.25     71.15      0.00
  J-464                0.13   1125.88     67.04      0.00
  J-465                0.28   1125.88     63.33      0.00
  J-466                1.28   1129.94     87.30      0.00
  J-467                1.02   1129.02     93.37      0.00
  J-468                0.89   1139.67     63.48      0.00
  J-469                0.63   1138.99     59.49      0.00
  J-47                 0.66   1132.07     62.90      0.00
  J-470                0.43   1138.86     70.18      0.00
  J-471                0.37   1125.02     67.77      0.00
  J-472                0.56   1125.02     65.34      0.00
  J-473                0.17   1130.45     60.68      0.00
  J-474                0.39   1129.95    108.08      0.00
  J-475                0.42   1129.95    107.03      0.00
  J-476                0.36   1138.84     66.28      0.00
  J-477                0.18   1138.84     61.81      0.00
  J-478                0.13   1125.01     71.54      0.00
  J-479                0.54   1125.01     80.76      0.00
  J-48                 0.49   1132.07     72.40      0.00
  J-480                0.41   1129.91     71.50      0.00
  J-481                0.26   1129.91     82.04      0.00
  J-482                0.65   1129.92     66.62      0.00
  J-483                0.37   1129.92     75.71      0.00
  J-484                0.61   1130.37     49.80      0.00
  J-485                0.22   1128.66     75.74      0.00
  J-486                0.33   1128.66     72.67      0.00
  J-487                0.47   1129.92     81.60      0.00
  J-488                0.80   1139.44     54.57      0.00
  J-489                0.97   1139.50     59.89      0.00
  J-49                 0.54   1139.44     54.09      0.00
  J-490                0.07   1129.91     68.96      0.00
  J-491                0.45   1134.95     67.84      0.00
  J-492                0.35   1135.76     77.46      0.00
  J-493                0.90   1129.92     72.05      0.00
  J-494                0.44   1131.31     67.01      0.00
  J-495                0.31   1127.09     62.42      0.00
  J-496                0.49   1127.45     57.37      0.00
  J-497                0.15   1128.68     58.16      0.00
  J-498                0.30   1128.68     62.64      0.00
  J-499                0.69   1129.95    105.73      0.00
  J-5                  0.39   1129.13     55.44      0.00
  J-50                 0.79   1139.42     49.21      0.00
  J-500                0.73   1129.94    100.13      0.00
  J-501                0.78   1125.90     60.63      0.00
  J-502                0.23   1126.89     64.84      0.00
  J-503                1.07   1126.54     57.40      0.00
  J-504                0.32   1124.51     62.48      0.00
  J-505                0.30   1129.92     82.76      0.00
  J-506                0.92   1125.02     72.99      0.00
  J-507                0.78   1125.02     79.02      0.00
  J-508                0.19   1110.85     73.92      0.00
  J-509                0.04   1110.85     73.91      0.00
  J-51                 0.11   1136.59     78.56      0.00
  J-510                0.73   1127.52     52.13      0.00
  J-511                0.69   1126.43     72.58      0.00
  J-512                0.65   1126.36     74.49      0.00
  J-513                0.00   1132.07     58.89      0.00
  J-514                0.00   1128.66     58.34      0.00
  J-515                0.24   1129.92     80.27      0.00
  J-516                0.56   1136.92     56.68      0.00
  J-517                0.29   1136.39     60.57      0.00
  J-518                0.15   1129.92     77.62      0.00
  J-519                0.60   1129.92     84.62      0.00
  J-52                 0.26   1136.60     78.54      0.00
  J-520                0.44   1125.01     88.53      0.00
  J-521                0.44   1125.01     86.79      0.00
  J-522                0.08   1126.43     70.68      0.00
  J-523                0.61   1129.92     69.23      0.00
  J-524                0.20   1130.51     60.59      0.00
  J-525                0.65   1129.91     57.13      0.00
  J-526                1.35   1129.91     69.64      0.00
  J-527                0.68   1123.32     86.57      0.00
  J-528                0.59   1122.79     75.03      0.00
  J-529                0.16   1121.71     56.90      0.00
  J-53                 0.08   1132.07     61.36      0.00
  J-530                0.00   1125.27     76.23      0.00
  J-531                0.76   1126.36     68.77      0.00
  J-532                0.78   1139.81     62.84      0.00
  J-533                0.28   1139.81     56.44      0.00
  J-534                0.54   1132.90     50.02      0.00
  J-535                0.72   1134.82     68.73      0.00
  J-536                0.23   1133.83     73.70      0.00
  J-537                0.22   1133.92     73.80      0.00
  J-538                0.08   1139.96     57.04      0.00
  J-539                0.61   1139.96     58.58      0.00
  J-54                 1.10   1139.43     49.51      0.00
  J-540                0.52   1121.72     56.72      0.00
  J-541                0.25   1121.72     56.32      0.00
  J-542                0.81   1138.94     64.83      0.00
  J-543                0.40   1138.94     61.77      0.00
  J-544                0.51   1127.14     67.78      0.00
  J-545                0.11   1125.33     72.72      0.00
  J-546                0.26   1129.91     59.51      0.00
  J-547                0.83   1130.54     58.29      0.00
  J-548                0.41   1131.74     49.35      0.00
  J-549                0.45   1129.94     94.98      0.00
  J-55                 0.57   1128.49     57.41      0.00
  J-550                0.80   1129.94     83.65      0.00
  J-551                0.37   1125.01     96.61      0.00
  J-552                0.69   1125.01     96.14      0.00
  J-553                0.90   1136.73     64.89      0.00
  J-554                0.06   1136.73     66.89      0.00
  J-555                0.72   1137.63     58.32      0.00
  J-556                0.24   1135.17     85.40      0.00
  J-557                0.25   1135.88     82.14      0.00
  J-558                0.63   1120.57     90.08      0.00
  J-559                1.01   1122.01     83.45      0.00
  J-56                 0.00   1131.98     54.46      0.00
  J-560                0.59   1122.48     61.93      0.00
  J-561                0.22   1122.48     59.45      0.00
  J-562                1.29   1130.43     57.04      0.00
  J-563                0.97   1131.06     52.00      0.00
  J-564                0.60   1125.80     56.37      0.00
  J-565                0.20   1125.24     72.66      0.00
  J-566                0.00   1128.95     50.36      0.00
  J-567                0.81   1131.72     75.13      0.00
  J-568                0.71   1131.50     88.46      0.00
  J-569                0.48   1137.34     63.52      0.00
  J-57                 0.00   1132.02     55.63      0.00
  J-570                0.11   1137.34     62.16      0.00
  J-571                0.55   1129.92     80.52      0.00
  J-572                0.46   1129.97    104.57      0.00
  J-573                0.50   1129.95    107.44      0.00
  J-574                0.21   1125.03     63.71      0.00
  J-575                1.33   1137.45     66.44      0.00
  J-576                0.44   1121.72     78.82      0.00
  J-577                0.30   1117.60     71.64      0.00
  J-578                0.59   1119.30     82.42      0.00
  J-579                0.45   1128.65     82.87      0.00
  J-58                 0.19   1132.07     52.10      0.00
  J-580                0.10   1128.65     80.88      0.00
  J-581                0.26   1125.59     60.69      0.00
  J-582                0.17   1122.50     57.24      0.00
  J-583                0.63   1139.93     41.97      0.00
  J-584                0.00   1134.94     67.63      0.00
  J-585                0.69   1131.39     79.70      0.00
  J-586                1.44   1108.92     70.74      0.00
  J-587                1.41   1107.22     54.63      0.00
  J-588                0.36   1131.43     60.50      0.00
  J-589                0.77   1131.45     71.48      0.00
  J-59                 0.29   1132.07     61.03      0.00
  J-590                0.68   1126.83     67.74      0.00
  J-591                0.17   1129.92     73.26      0.00
  J-592                0.04   1125.38     79.17      0.00
  J-593                0.29   1129.92     77.58      0.00
  J-594                0.69   1111.34     64.88      0.00
  J-595                0.21   1125.02     78.13      0.00
  J-596                0.43   1130.49     73.62      0.00
  J-597                0.19   1131.57     61.42      0.00
  J-598                0.30   1131.57     58.70      0.00
  J-599                0.69   1124.52     84.69      0.00
  J-6                  0.59   1129.02     62.20      0.00
  J-60                 0.14   1131.31     60.93      0.00
  J-600                0.12   1122.48     57.99      0.00
  J-601                1.47   1125.02     74.29      0.00
  J-602                1.25   1125.02     83.91      0.00
  J-603                0.15   1124.34     75.25      0.00
  J-604                0.61   1129.75     50.11      0.00
  J-605                0.58   1130.18     57.12      0.00
  J-606                0.21   1119.92     84.19      0.00
  J-607                0.07   1119.92     84.25      0.00
  J-608                0.42   1124.51     66.43      0.00
  J-609                0.49   1124.51     59.50      0.00
  J-61                 0.12   1131.24     85.69      0.00
  J-610                0.92   1139.42     62.62      0.00
  J-611                1.11   1137.39     64.60      0.00
  J-612                0.58   1137.13     57.43      0.00
  J-613                0.52   1139.44     53.98      0.00
  J-614                0.19   1124.52     81.95      0.00
  J-615                0.70   1139.79     54.09      0.00
  J-616                0.40   1125.27     63.26      0.00
  J-617                0.61   1125.01     84.77      0.00
  J-618                0.82   1129.40     57.74      0.00
  J-619                0.19   1127.24     68.42      0.00
  J-62                 0.24   1132.13     55.71      0.00
  J-620                0.59   1127.24     56.91      0.00
  J-621                0.32   1124.88     72.31      0.00
  J-622                0.53   1139.69     67.54      0.00
  J-623                0.10   1139.98     59.09      0.00
  J-624                0.25   1139.98     69.40      0.00
  J-625                0.79   1125.01     69.22      0.00
  J-626                0.95   1130.28     64.91      0.00
  J-627                0.19   1130.27     65.81      0.00
  J-628                0.06   1110.50     63.69      0.00
  J-629                0.33   1130.45     77.22      0.00
  J-63                 0.21   1132.13     47.17      0.00
  J-630                0.39   1128.89     80.41      0.00
  J-631                0.67   1139.42     54.00      0.00
  J-632                0.26   1120.75     57.51      0.00
  J-633                0.16   1125.01     82.10      0.00
  J-634                0.36   1125.01     75.22      0.00
  J-635                0.30   1128.65     82.18      0.00
  J-636                0.13   1128.65     76.20      0.00
  J-637                0.30   1139.84     70.41      0.00
  J-638                1.23   1129.75     51.26      0.00
  J-639                0.35   1111.21     69.87      0.00
  J-64                 0.05   1119.92     92.29      0.00
  J-640                0.21   1111.21     78.36      0.00
  J-641                0.41   1132.29     57.93      0.00
  J-642                0.00   1134.94     67.36      0.00
  J-643                0.10   1125.02     70.34      0.00
  J-644                0.04   1124.29     75.72      0.00
  J-645                0.21   1124.29     75.54      0.00
  J-646                0.62   1131.06     60.69      0.00
  J-647                0.80   1125.02     66.88      0.00
  J-648                0.21   1134.54     71.70      0.00
  J-649                0.15   1129.92     73.91      0.00
  J-65                 0.04   1119.92     90.34      0.00
  J-650                0.31   1139.97     65.75      0.00
  J-651                0.70   1139.97     75.53      0.00
  J-652                0.68   1133.21     55.23      0.00
  J-653                0.82   1132.91     56.08      0.00
  J-654                0.06   1119.92     87.27      0.00
  J-655                0.32   1129.92     83.46      0.00
  J-656                0.54   1139.97     65.99      0.00
  J-657                0.32   1139.97     60.29      0.00
  J-658                0.27   1124.26     69.02      0.00
  J-659                0.21   1124.29     73.05      0.00
  J-66                 0.18   1139.98     58.82      0.00
  J-660                0.71   1134.53     70.95      0.00
  J-661                0.64   1133.97     63.25      0.00
  J-662                0.48   1140.37     78.74      0.00
  J-663                0.43   1139.97     68.09      0.00
  J-664                0.78   1139.97     62.99      0.00
  J-665                0.16   1125.88     68.80      0.00
  J-666                0.16   1129.94     74.94      0.00
  J-667                0.92   1129.94     73.43      0.00
  J-668                0.47   1139.90     70.58      0.00
  J-669                0.23   1131.45     79.13      0.00
  J-67                 0.00   1129.23     71.90      0.00
  J-670                0.31   1124.51     67.05      0.00
  J-671                0.82   1129.91     54.84      0.00
  J-672                0.66   1129.91     66.10      0.00
  J-673                0.09   1139.97     66.02      0.00
  J-674                0.40   1139.97     61.02      0.00
  J-675                0.23   1131.31     76.82      0.00
  J-676                0.06   1131.31     73.61      0.00
  J-677                0.19   1129.86     79.13      0.00
  J-678                0.45   1129.86     76.65      0.00
  J-679                0.43   1111.10     74.13      0.00
  J-68                 0.67   1131.95     69.66      0.00
  J-680                0.22   1111.10     79.70      0.00
  J-681                0.21   1129.14     55.00      0.00
  J-682                0.34   1129.92     73.32      0.00
  J-683                0.10   1129.92     75.87      0.00
  J-684                0.58   1128.98     64.74      0.00
  J-685                0.54   1129.02     65.46      0.00
  J-686                0.36   1126.42     62.32      0.00
  J-687                0.44   1126.46     61.65      0.00
  J-688                0.51   1129.91     67.04      0.00
  J-689                1.08   1129.91     64.08      0.00
  J-69                 0.06   1119.92     92.60      0.00
  J-690                0.37   1126.41     60.85      0.00
  J-691                1.17   1129.91     51.26      0.00
  J-692                1.09   1129.11    100.88      0.00
  J-693                0.00   1134.89     65.56      0.00
  J-694                0.46   1129.15     55.25      0.00
  J-695                0.49   1129.08     59.87      0.00
  J-696                0.07   1136.92     57.86      0.00
  J-697                0.09   1136.92     56.02      0.00
  J-698                1.33   1107.16     56.22      0.00
  J-699                0.53   1107.16     49.28      0.00
  J-7                  0.24   1132.07     55.63      0.00
  J-70                 0.04   1119.92     91.08      0.00
  J-700                0.40   1134.76     71.05      0.00
  J-701                0.73   1134.98     76.19      0.00
  J-702                0.18   1127.99     57.03      0.00
  J-703                0.43   1132.64     55.79      0.00
  J-704                0.96   1129.00     62.11      0.00
  J-705                0.62   1130.46     73.01      0.00
  J-706                0.07   1129.73     76.59      0.00
  J-707                0.28   1129.73     78.13      0.00
  J-708                0.15   1129.92     65.38      0.00
  J-709                0.59   1138.86     59.57      0.00
  J-71                 0.28   1131.26     83.50      0.00
  J-710                0.25   1125.24     67.67      0.00
  J-711                0.68   1125.24     78.02      0.00
  J-712                0.45   1128.68     59.01      0.00
  J-713                0.39   1130.43     60.13      0.00
  J-714                0.27   1130.44     63.26      0.00
  J-715                0.62   1136.20     55.44      0.00
  J-716                0.20   1136.35     57.93      0.00
  J-717                0.51   1129.92     80.48      0.00
  J-718                0.17   1129.92     81.90      0.00
  J-719                0.09   1128.65     77.07      0.00
  J-72                 0.62   1131.30     83.79      0.00
  J-720                0.75   1139.33     78.13      0.00
  J-721                0.64   1120.09     86.99      0.00
  J-722                0.09   1128.66     70.78      0.00
  J-723                0.04   1136.58     80.72      0.00
  J-724                0.13   1136.58     80.82      0.00
  J-725                0.30   1126.46     75.45      0.00
  J-726                0.61   1125.01     95.37      0.00
  J-727                0.21   1125.01     92.35      0.00
  J-728                0.53   1128.66     67.80      0.00
  J-729                0.33   1124.51     64.03      0.00
  J-73                 0.22   1131.24     83.30      0.00
  J-730                0.10   1131.50     70.79      0.00
  J-731                0.08   1125.01     93.50      0.00
  J-732                0.58   1125.01     82.88      0.00
  J-733                0.42   1134.86     61.39      0.00
  J-734                0.17   1129.92     71.46      0.00
  J-735                0.17   1132.19     61.43      0.00
  J-736                0.44   1132.19     59.84      0.00
  J-737                0.33   1125.91     57.72      0.00
  J-738                0.47   1143.76     76.59      0.00
  J-739                1.01   1139.94     48.51      0.00
  J-74                 0.47   1119.92     90.97      0.00
  J-740                0.05   1129.94     90.85      0.00
  J-741                0.25   1129.94     89.86      0.00
  J-742                0.13   1124.52     57.53      0.00
  J-743                0.00   1131.35     78.74      0.00
  J-744                0.48   1133.53     63.94      0.00
  J-745                0.35   1139.98     51.43      0.00
  J-746                0.71   1139.98     56.36      0.00
  J-747                0.59   1124.25     76.76      0.00
  J-748                0.56   1124.25     71.21      0.00
  J-749                0.12   1131.31     79.71      0.00
  J-75                 0.28   1132.36     60.51      0.00
  J-750                0.21   1139.90     59.11      0.00
  J-751                1.00   1139.89     58.78      0.00
  J-752                0.73   1129.71     60.57      0.00
  J-753                0.39   1125.01     74.78      0.00
  J-754                0.23   1124.25     74.86      0.00
  J-755                0.51   1129.96    100.09      0.00
  J-756                0.42   1125.18     71.24      0.00
  J-757                0.40   1124.02     69.28      0.00
  J-758                0.10   1124.02     75.22      0.00
  J-759                0.58   1134.14     61.20      0.00
  J-76                 0.88   1132.35     60.55      0.00
  J-760                0.46   1134.14     49.71      0.00
  J-761                0.34   1139.97     51.82      0.00
  J-762                0.41   1128.70     68.42      0.00
  J-763                0.41   1128.70     59.77      0.00
  J-764                0.18   1141.15     71.96      0.00
  J-765                0.19   1141.15     68.36      0.00
  J-766                0.43   1124.51     66.28      0.00
  J-767                0.75   1124.51     67.94      0.00
  J-768                0.06   1125.24     74.56      0.00
  J-769                0.16   1129.94     93.15      0.00
  J-77                 0.00   1130.15     50.70      0.00
  J-770                0.39   1124.35     71.12      0.00
[...]
  J-702                0.18   1128.83     57.39      0.00
  J-703                0.43   1129.93     54.62      0.00
  J-704                0.96   1128.68     61.97      0.00
  J-705                0.62   1131.26     73.36      0.00
  J-706                0.07   1131.03     77.16      0.00
  J-707                0.28   1131.03     78.69      0.00
  J-708                0.15   1131.11     65.90      0.00
  J-709                0.59   1127.96     54.85      0.00
  J-71                 0.28   1127.96     82.07      0.00
  J-710                0.25   1126.15     68.06      0.00
  J-711                0.68   1126.15     78.41      0.00
  J-712                0.45   1129.32     59.29      0.00
  J-713                0.39   1128.72     59.39      0.00
  J-714                0.27   1128.73     62.51      0.00
  J-715                0.62   1127.56     51.69      0.00
  J-716                0.20   1127.56     54.12      0.00
  J-717                0.51   1131.11     81.00      0.00
  J-718                0.17   1131.11     82.41      0.00
  J-719                0.09   1129.69     77.52      0.00
  J-72                 0.62   1127.99     82.35      0.00
  J-720                0.75   1128.01     73.23      0.00
  J-721                0.64   1129.43     91.03      0.00
  J-722                0.09   1129.69     71.22      0.00
  J-723                0.04   1128.14     77.06      0.00
  J-724                0.13   1128.14     77.17      0.00
  J-725                0.30   1128.93     76.52      0.00
  J-726                0.61   1125.87     95.73      0.00
  J-727                0.21   1125.87     92.72      0.00
  J-728                0.53   1129.69     68.24      0.00
  J-729                0.33   1129.67     66.27      0.00
  J-73                 0.22   1127.95     81.87      0.00
  J-730                0.10   1131.19     70.66      0.00
  J-731                0.08   1125.87     93.87      0.00
  J-732                0.58   1125.87     83.25      0.00
  J-733                0.42   1128.25     58.53      0.00
  J-734                0.17   1131.11     71.98      0.00
  J-735                0.17   1130.06     60.50      0.00
  J-736                0.44   1130.06     58.92      0.00
  J-737                0.33   1129.94     59.46      0.00
  J-738                0.47   1127.91     69.73      0.00
  J-739                1.01   1130.01     44.21      0.00
  J-74                 0.47   1129.43     95.10      0.00
  J-740                0.05   1131.13     91.37      0.00
  J-741                0.25   1131.13     90.38      0.00
  J-742                0.13   1129.67     59.76      0.00
  J-743                0.00   1133.19     79.54      0.00
  J-744                0.48   1128.51     61.76      0.00
  J-745                0.35   1130.05     47.13      0.00
  J-746                0.71   1130.05     52.06      0.00
  J-747                0.59   1129.28     78.94      0.00
  J-748                0.56   1129.27     73.39      0.00
  J-749                0.12   1128.02     78.28      0.00
  J-75                 0.28   1130.53     59.72      0.00
  J-750                0.21   1129.98     54.81      0.00
  J-751                1.00   1129.97     54.48      0.00
  J-752                0.73   1129.02     60.28      0.00
  J-753                0.39   1125.86     75.15      0.00
  J-754                0.23   1129.27     77.04      0.00
  J-755                0.51   1131.15    100.61      0.00
  J-756                0.42   1126.60     71.85      0.00
  J-757                0.40   1129.25     71.55      0.00
  J-758                0.10   1129.25     77.49      0.00
  J-759                0.58   1130.10     59.45      0.00
  J-76                 0.88   1130.53     59.76      0.00
  J-760                0.46   1130.10     47.96      0.00
  J-761                0.34   1130.04     47.51      0.00
  J-762                0.41   1129.89     68.94      0.00
  J-763                0.41   1129.89     60.28      0.00
  J-764                0.18   1127.98     66.26      0.00
  J-765                0.19   1127.98     62.66      0.00
  J-766                0.43   1129.67     68.51      0.00
  J-767                0.75   1129.67     70.17      0.00
  J-768                0.06   1126.15     74.95      0.00
  J-769                0.16   1131.13     93.67      0.00
  J-77                 0.00   1128.74     50.09      0.00
  J-770                0.39   1129.18     73.21      0.00
  J-771                0.21   1131.13     95.11      0.00
  J-772                0.26   1131.12     84.11      0.00
  J-773                0.55   1131.12     91.03      0.00
  J-774                0.63   1125.86     82.63      0.00
  J-775                0.44   1131.16     90.30      0.00
  J-776                0.39   1131.13     84.69      0.00
  J-777                0.36   1131.13     87.35      0.00
  J-778                0.60   1131.12     68.97      0.00
  J-779                0.05   1131.13     86.23      0.00
  J-78                 0.89   1128.77     50.55      0.00
  J-780                0.39   1127.51     73.04      0.00
  J-781                0.32   1127.51     71.49      0.00
  J-782                0.04   1129.26     74.54      0.00
  J-783                0.06   1129.43     69.08      0.00
  J-784                0.00   1128.27     70.39      0.00
  J-785                0.43   1130.26     51.38      0.00
  J-786                0.53   1130.04     46.04      0.00
  J-787                0.13   1130.00     55.90      0.00
  J-788                0.61   1130.00     60.06      0.00
  J-789                0.32   1128.13     74.21      0.00
  J-79                 1.52   1128.88     62.41      0.00
  J-790                0.16   1127.81     76.74      0.00
  J-792                0.37   1127.77     61.57      0.00
  J-793                0.27   1130.16     68.23      0.00
  J-794                0.24   1130.16     68.25      0.00
  J-795                0.50   1128.04     71.02      0.00
  J-796                0.64   1128.64     61.44      0.00
  J-797                0.73   1130.00     64.90      0.00
  J-798                0.37   1127.85     71.78      0.00
  J-799                0.92   1131.20     76.84      0.00
  J-8                  0.08   1131.83     59.74      0.00
  J-80                 1.18   1129.17     57.91      0.00
  J-800                1.25   1131.25     59.91      0.00
  J-801                0.64   1131.32     75.31      0.00
  J-802                0.18   1129.69     77.52      0.00
  J-803                0.06   1129.69     73.85      0.00
  J-804                0.37   1130.00     55.16      0.00
  J-805                0.30   1130.00     55.15      0.00
  J-806                0.19   1130.00     57.42      0.00
  J-807                0.38   1128.99     69.73      0.00
  J-808                0.78   1131.11     74.58      0.00
  J-809                0.61   1131.11     71.91      0.00
  J-81                 0.56   1129.98     65.85      0.00
  J-810                0.36   1125.87     87.24      0.00
  J-811                0.63   1125.87     79.12      0.00
  J-812                0.71   1130.34     58.95      0.00
  J-813                0.99   1130.04     51.96      0.00
  J-814                1.03   1130.01     70.31      0.00
  J-815                0.39   1129.69     65.15      0.00
  J-816                0.82   1131.10     68.08      0.00
  J-817                0.25   1131.37     60.62      0.00
  J-818                0.35   1129.43     73.06      0.00
  J-819                0.52   1129.37     65.13      0.00
  J-82                 0.62   1129.69     66.91      0.00
  J-820                0.66   1128.74     49.33      0.00
  J-821                0.32   1128.74     48.50      0.00
  J-822                0.46   1125.87     70.18      0.00
  J-823                0.33   1131.12     83.87      0.00
  J-824                0.60   1129.36     63.65      0.00
  J-825                0.16   1131.12     85.49      0.00
  J-826                0.63   1129.67     56.25      0.00
  J-827                0.12   1131.14     98.86      0.00
  J-828                0.07   1129.43     72.25      0.00
  J-829                0.51   1129.67     68.16      0.00
  J-83                 0.56   1128.06     64.27      0.00
  J-830                0.15   1131.11     70.96      0.00
  J-831                0.17   1129.28     81.79      0.00
  J-832                0.36   1129.28     83.02      0.00
  J-833                0.49   1142.76    103.74      0.00
  J-834                0.04   1142.76    103.45      0.00
  J-835                0.47   1128.70     62.59      0.00
  J-836                0.45   1130.04     50.10      0.00
  J-837                0.73   1127.76     40.05      0.00
  J-838                0.50   1127.82     52.87      0.00
  J-839                0.52   1128.73     46.09      0.00
  J-84                 0.54   1128.03     66.55      0.00
  J-840                0.13   1129.69     80.02      0.00
  J-841                0.15   1129.08     59.02      0.00
  J-842                0.70   1129.69     77.98      0.00
  J-843                0.09   1130.99     77.34      0.00
  J-844                0.59   1130.63     54.08      0.00
  J-845                0.47   1130.44     50.94      0.00
  J-846                0.08   1129.44     91.20      0.00
  J-847                0.25   1129.29     83.84      0.00
  J-848                0.64   1129.40     61.12      0.00
  J-849                0.47   1129.15     61.65      0.00
  J-85                 0.33   1128.10     65.51      0.00
  J-850                0.23   1131.16     89.57      0.00
  J-851                0.24   1129.43     90.04      0.00
  J-852                0.47   1130.01     41.65      0.00
  J-853                1.06   1130.01     41.64      0.00
  J-854                0.00   1128.26     71.10      0.00
  J-855                0.00   1128.12     56.64      0.00
  J-856                0.13   1128.26     70.27      0.00
  J-857                0.69   1129.43     71.25      0.00
  J-858                0.51   1131.13     75.19      0.00
  J-859                0.55   1129.88     72.03      0.00
  J-86                 0.25   1128.14     61.81      0.00
  J-860                0.14   1131.75     46.55      0.00
  J-861                0.31   1127.41     57.75      0.00
  J-862                0.60   1127.54     52.46      0.00
  J-863                0.36   1129.43     95.08      0.00
  J-864                0.32   1127.54     51.88      0.00
  J-865                0.18   1131.10     54.29      0.00
  J-866                0.06   1131.10     54.24      0.00
  J-867                0.26   1129.27     55.32      0.00
  J-868                0.72   1129.27     55.92      0.00
  J-869                0.28   1130.05     62.58      0.00
  J-87                 0.27   1131.17     70.35      0.00
  J-870                0.10   1130.00     60.27      0.00
  J-871                0.10   1129.94     64.87      0.00
  J-872                0.45   1126.15     73.33      0.00
  J-873                0.33   1131.10     78.11      0.00
  J-874                0.29   1128.32     54.25      0.00
  J-875                0.67   1130.02     75.83      0.00
  J-876                0.27   1130.02     73.25      0.00
  J-877                0.13   1129.25     75.72      0.00
  J-878                0.32   1129.25     72.43      0.00
  J-879                0.43   1128.65     57.53      0.00
  J-88                 2.39   1129.98     66.39      0.00
  J-880                0.46   1128.70     52.75      0.00
  J-881                0.22   1129.86     86.93      0.00
  J-882                0.27   1129.82     77.69      0.00
  J-883                0.39   1127.07     79.27      0.00
  J-884                0.73   1127.01     61.97      0.00
  J-885                0.19   1128.07     69.80      0.00
  J-886                0.29   1127.06     67.40      0.00
  J-887                0.05   1130.26     51.86      0.00
  J-888                0.25   1127.53     61.29      0.00
  J-889                0.22   1130.18     59.32      0.00
  J-89                 0.59   1129.66     66.51      0.00
  J-890                0.14   1129.43     88.72      0.00
  J-891                0.24   1128.17     75.92      0.00
  J-892                0.36   1129.67     67.36      0.00
  J-893                0.10   1131.11     83.87      0.00
  J-894                0.04   1128.72     52.99      0.00
  J-895                0.14   1129.26     71.65      0.00
  J-896                0.84   1125.87     85.52      0.00
  J-897                0.67   1130.04     67.55      0.00
  J-898                0.12   1130.04     67.71      0.00
  J-899                0.55   1127.76     62.94      0.00
  J-9                  0.35   1128.13     77.10      0.00
  J-90                 0.49   1130.75     75.73      0.00
  J-900                0.39   1127.76     67.03      0.00
  J-901                0.55   1131.14     97.73      0.00
  J-902                0.52   1142.76     85.17      0.00
  J-903                0.25   1142.76     83.67      0.00
  J-904                0.55   1127.94     51.58      0.00
  J-905                0.40   1128.32     74.83      0.00
  J-906                0.47   1129.47     58.19      0.00
  J-907                0.05   1129.74     58.84      0.00
  J-908                0.22   1131.07     77.86      0.00
  J-909                0.47   1131.07     89.07      0.00
  J-91                 0.57   1130.75     75.88      0.00
  J-910                0.23   1131.13     99.89      0.00
  J-911                0.32   1128.76     56.75      0.00
  J-912                0.24   1128.76     55.81      0.00
  J-913                0.55   1128.84     59.94      0.00
  J-914                0.34   1127.62     67.61      0.00
  J-915                1.13   1127.54     63.46      0.00
  J-916                0.21   1131.19     72.13      0.00
  J-917                0.76   1129.26     87.58      0.00
  J-918                0.26   1129.27     84.30      0.00
  J-919                0.27   1126.88     64.13      0.00
  J-92                 0.03   1130.75     75.96      0.00
  J-920                0.20   1129.43     92.95      0.00
  J-921                0.36   1128.70     61.23      0.00
  J-922                0.39   1131.19     72.42      0.00
  J-923                0.14   1131.19     79.62      0.00
  J-924                0.28   1130.04     70.22      0.00
  J-925                0.18   1130.04     69.59      0.00
  J-926                0.21   1127.51     66.22      0.00
  J-927                0.74   1129.28     86.53      0.00
  J-928                0.39   1129.28     84.46      0.00
  J-929                0.54   1127.93     76.80      0.00
  J-93                 0.64   1128.00     77.94      0.00
  J-930                0.10   1131.12     82.38      0.00
  J-931                1.18   1129.38    101.46      0.00
  J-932                5.90   1129.38     66.65      0.00
  J-933                0.46   1125.87     69.63      0.00
  J-934                0.00   1128.13     56.18      0.00
  J-935                0.05   1130.21     72.14      0.00
  J-936                0.42   1130.04     50.28      0.00
  J-937                0.60   1130.04     49.30      0.00
  J-938                0.31   1130.04     59.67      0.00
  J-939                0.38   1130.04     60.25      0.00
  J-94                 1.00   1127.99     81.74      0.00
  J-940                0.53   1125.87     80.16      0.00
  J-941                0.53   1129.41     52.20      0.00
  J-942                0.08   1127.76     54.96      0.00
  J-943                0.18   1128.96     64.41      0.00
  J-944                0.00   1128.26     65.69      0.00
  J-945                0.12   1128.33     57.43      0.00
  J-946                0.15   1129.08     61.49      0.00
  J-947                0.69   1129.08     67.94      0.00
  J-948                0.54   1128.64     68.10      0.00
  J-949                0.82   1128.65     58.13      0.00
  J-95                 0.22   1128.01     77.75      0.00
  J-950                0.59   1142.76     64.10      0.00
  J-951                1.93   1142.76     90.55      0.00
  J-952                0.37   1128.64     70.17      0.00
  J-953                0.64   1130.69     72.61      0.00
  J-954                0.13   1142.76     85.23      0.00
  J-955                0.10   1129.23     55.80      0.00
  J-956                0.12   1131.11     83.76      0.00
  J-957                0.13   1129.29     60.96      0.00
  J-958                0.38   1129.29     63.80      0.00
  J-959                0.84   1129.00     72.82      0.00
  J-96                 0.43   1128.13     72.41      0.00
  J-960                0.39   1129.32     68.89      0.00
  J-961                0.55   1130.15     73.94      0.00
  J-962                0.17   1131.13     84.93      0.00
  J-963                0.12   1131.10     76.71      0.00
  J-964                0.56   1131.11     76.53      0.00
  J-965                0.18   1131.13     88.38      0.00
  J-966                0.38   1128.09     78.17      0.00
  J-967                0.09   1130.02     69.29      0.00
  J-968                0.51   1130.77     74.37      0.00
  J-969                0.53   1127.77     39.45      0.00
  J-97                 1.06   1128.12     72.10      0.00
  J-970                0.61   1130.04     64.30      0.00
  J-971                0.08   1130.04     68.95      0.00
  J-972                0.60   1130.04     67.10      0.00
  J-973                0.35   1127.76     42.90      0.00
  J-974                0.56   1127.76     45.37      0.00
  J-975                0.40   1130.04     54.48      0.00
  J-976                0.20   1130.04     68.05      0.00
  J-977                0.31   1130.04     60.68      0.00
  J-978                0.79   1131.02     79.76      0.00
  J-979                0.76   1131.04     94.71      0.00
  J-98                 0.47   1130.77     76.93      0.00
  J-980                0.85   1127.77     39.24      0.00
  J-981                0.41   1130.04     65.03      0.00
  J-982                0.10   1130.01     56.64      0.00
  J-983                0.83   1130.01     58.46      0.00
  J-984                0.12   1131.13     82.62      0.00
  J-985                0.32   1131.13     90.63      0.00
  J-986                0.48   1131.33     58.68      0.00
  J-987                0.49   1128.64     68.95      0.00
  J-988                0.89   1128.88     60.80      0.00
  J-989                0.69   1128.86     64.53      0.00
  J-99                 0.20   1127.99     84.18      0.00
  J-990                0.05   1130.04     63.17      0.00
  J-991                0.09   1128.93     66.65      0.00
  J-992                0.36   1128.13     77.26      0.00
  J-993                0.26   1127.94     52.84      0.00
  J-994                0.08   1127.94     53.69      0.00
  J-995                0.39   1127.76     64.58      0.00
  J-996                0.14   1127.83     53.05      0.00
  J-997                0.13   1127.94     46.82      0.00
  J-998                0.45   1128.68     57.95      0.00
  J-999                0.95   1129.43     64.78      0.00
  O-Pump-1             0.00    851.43    107.79      0.00
  O-Pump-2             0.00   1143.80     62.23      0.00
  O-Pump-4             0.00   1131.13    128.36      0.00
  O-Pump-5             0.00    928.36     40.77      0.00
  I-Pump-1             0.00    577.49    -10.91      0.00
  I-Pump-2             0.00    913.16    -37.71      0.00
  I-Pump-4             0.00    836.12      0.53      0.00
  I-Pump-5             0.00    836.10      0.80      0.00
  R-1              -1083.08    577.58     -0.00      0.00  Reservoir
  R-2               -632.09    836.12     -0.00      0.00  Reservoir
  T-1                200.41   1127.83     58.71      0.00  Tank
  T-2               -104.67   1130.07     51.70      0.00  Tank
  T-3                653.04   1126.33     60.48      0.00  Tank
  T-4                219.60   1125.85     63.62      0.00  Tank
  T-5                  0.00   1110.00     65.52      0.00  Tank
   
  Analysis ended Mon Jun 24 21:31:09 2019
