  Page 1                                    Thu Jun 27 00:35:08 2019

  ******************************************************************
  *                           E P A N E T                          *
  *                   Hydraulic and Water Quality                  *
  *                   Analysis for Pipe Networks                   *
  *                         Version 2.00.12                        *
  ******************************************************************
  
  Analysis begun Thu Jun 27 00:35:08 2019

   
  Hydraulic Status:
  -----------------------------------------------------------------------
     0:00:00: Balanced after 5 trials
     0:00:00: Reservoir River is emptying
     0:00:00: Reservoir Lake is closed
     0:00:00: Tank 1 is filling at 13.10 ft
     0:00:00: Tank 2 is emptying at 23.50 ft
     0:00:00: Tank 3 is filling at 29.00 ft
   
     1:00:00: Pump 10 changed by timer control
     1:00:00: Balanced after 7 trials
     1:00:00: Reservoir Lake is emptying
     1:00:00: Pump 10 changed from closed to open
   
     2:00:00: Balanced after 3 trials
     2:00:00: Tank 2 is filling at 20.90 ft
   
     3:00:00: Balanced after 2 trials
   
     4:00:00: Balanced after 3 trials
   
     4:13:33: Pump 335 changed by Tank 1 control
     4:13:33: Pipe 330 changed by Tank 1 control
     4:13:33: Balanced after 4 trials
     4:13:33: Pipe 330 changed from closed to open
     4:13:33: Pump 335 changed from open to closed
   
     5:00:00: Balanced after 3 trials
     5:00:00: Tank 3 is emptying at 34.30 ft
   
     6:00:00: Balanced after 3 trials
     6:00:00: Tank 3 is filling at 34.12 ft
   
     7:00:00: Balanced after 3 trials
   
     8:00:00: Balanced after 2 trials
   
     9:00:00: Balanced after 3 trials
     9:00:00: Tank 3 is emptying at 35.15 ft
   
    10:00:00: Balanced after 2 trials
    10:00:00: Tank 1 is emptying at 22.20 ft
   
    11:00:00: Balanced after 3 trials
    11:00:00: Tank 2 is emptying at 27.70 ft
   
    12:00:00: Balanced after 2 trials
    12:00:00: Tank 2 is filling at 27.64 ft
   
    13:00:00: Balanced after 3 trials
    13:00:00: Tank 1 is filling at 21.73 ft
   
    14:00:00: Balanced after 3 trials
   
    15:00:00: Pump 10 changed by timer control
    15:00:00: Balanced after 5 trials
    15:00:00: Reservoir Lake is closed
    15:00:00: Tank 1 is emptying at 21.98 ft
    15:00:00: Tank 2 is emptying at 28.20 ft
    15:00:00: Pump 10 changed from open to closed
   
    16:00:00: Balanced after 3 trials
   
    17:00:00: Balanced after 2 trials
   
    18:00:00: Balanced after 3 trials
   
    19:00:00: Balanced after 2 trials
   
    20:00:00: Balanced after 3 trials
   
    21:00:00: Balanced after 2 trials
   
    21:19:39: Pump 335 changed by Tank 1 control
    21:19:39: Pipe 330 changed by Tank 1 control
    21:19:39: Balanced after 5 trials
    21:19:39: Tank 1 is filling at 17.10 ft
    21:19:39: Tank 3 is filling at 29.68 ft
    21:19:39: Pipe 330 changed from open to closed
    21:19:39: Pump 335 changed from closed to open
   
    22:00:00: Balanced after 3 trials
    22:00:00: Tank 1 is emptying at 17.30 ft
   
    23:00:00: Balanced after 3 trials
   
    24:00:00: Balanced after 4 trials
    24:00:00: Tank 1 is filling at 15.79 ft
   
   
  Node Results at 0:00:00 hrs:
  --------------------------------------------------------
                     Demand      Head  Pressure  Chemical
  Node                  gpm        ft       psi      mg/L
  --------------------------------------------------------
  10                   0.00    145.52     -0.64      0.00
  15                 620.00    125.81     40.65      0.00
  20                   0.00    158.00     12.57      0.00
  35                1637.00    145.74     57.73      0.00
  40                   0.00    145.00      5.68      0.00
  50                   0.00    140.00     10.18      0.00
  60                   0.00    209.01     90.56      0.00
  601                  0.00    302.45    131.05      0.00
  61                   0.00    302.45    131.05      0.00
  101                254.53    145.52     44.86      0.00
  103                178.49    145.49     44.41      0.00
  105                181.40    146.83     51.27      0.00
  107                 73.22    146.82     54.09      0.00
  109                310.08    145.49     54.25      0.00
  111                190.20    146.11     58.98      0.00
  113                 26.81    146.15     62.46      0.00
  115                 69.81    146.92     57.59      0.00
  117                157.73    150.03     59.12      0.00
  119                236.01    157.55     67.40      0.00
  120                  0.00    155.12     67.21      0.00
  121                 55.78    161.01     70.63      0.00
  123                  0.00    165.47     66.93      0.00
  125                 61.10    160.43     64.75      0.00
  127                 23.66    158.74     44.52      0.00
  129                  0.00    158.73     46.68      0.00
  131                 57.28    158.71     66.17      0.00
  139                  7.89    153.08     52.90      0.00
  141                 13.20    149.06     62.85      0.00
  143                  8.31    138.25     61.85      0.00
  145                 37.02    150.28     64.68      0.00
  147                 11.46    151.20     57.50      0.00
  149                 36.27    151.60     58.75      0.00
  151                193.60    155.44     52.84      0.00
  153                 59.19    155.54     38.71      0.00
  157                 69.40    155.11     61.53      0.00
  159                 55.37    151.76     63.16      0.00
  161                 21.17    149.48     63.04      0.00
  163                 12.62    149.02     62.41      0.00
  164                  0.00    149.02     62.41      0.00
  166                  3.48    149.02     65.44      0.00
  167                 19.51    147.15     65.93      0.00
  169                  0.00    147.15     65.93      0.00
  171                 52.72    146.07     65.03      0.00
  173                  0.00    146.05     65.02      0.00
  177                 77.95    145.73     59.68      0.00
  179                  0.00    145.72     59.67      0.00
  181                  0.00    145.75     59.69      0.00
  183                  0.00    145.72     58.37      0.00
  184                  0.00    144.49     55.68      0.00
  185                 34.37    145.08     55.93      0.00
  187                  0.00    145.78     57.75      0.00
  189                144.61    146.09     61.57      0.00
  191                109.75    146.05     52.45      0.00
  193                 95.56    146.15     55.53      0.00
  195                  0.00    146.22     56.64      0.00
  197                 22.83    146.06     53.32      0.00
  199                159.89    140.83     61.89      0.00
  201                 59.78    140.10     60.66      0.00
  203               4439.00    139.93     59.77      0.00
  204                  0.00    145.53     53.96      0.00
  205                 87.58    140.80     51.91      0.00
  206                  0.00    139.89     60.18      0.00
  207                 92.98    140.10     56.80      0.00
  208                  0.00    139.67     53.58      0.00
  209                  1.17    139.27     61.21      0.00
  211                 11.62    139.14     57.25      0.00
  213                 18.68    139.07     57.23      0.00
  215                123.53    138.88     57.14      0.00
  217                 32.45    138.86     57.57      0.00
  219                 55.37    138.85     58.43      0.00
  225                 30.55    138.85     56.70      0.00
  229                 86.00    138.98     55.67      0.00
  231                 22.08    138.97     58.05      0.00
  237                 20.92    139.08     54.20      0.00
  239                 59.78    139.08     54.63      0.00
  241                  0.00    139.09     54.63      0.00
  243                  5.82    139.08     54.20      0.00
  247                 94.31    139.09     52.47      0.00
  249                  0.00    139.09     52.47      0.00
  251                 32.37    139.10     47.27      0.00
  253                 73.06    139.22     44.72      0.00
  255                 54.12    139.27     48.65      0.00
  257                  0.00    152.00     58.49      0.00
  259                  0.00    151.56     54.84      0.00
  261                  0.00    149.98     64.99      0.00
  263                  0.00    149.82     64.92      0.00
  265                  0.00    147.75     64.02      0.00
  267                  0.00    146.17     54.24      0.00
  269                  0.00    146.49     63.48      0.00
  271                  0.00    145.84     60.59      0.00
  273                  0.00    140.80     57.54      0.00
  275                  0.00    140.10     56.37      0.00
  River           -13157.88    220.00      0.00      0.00  Reservoir
  Lake                 0.00    167.00      0.00      0.00  Reservoir
  1                  460.32    145.00      5.68      0.00  Tank
  2                 -329.21    140.00     10.18      0.00  Tank
  3                 2246.30    158.00     12.57      0.00  Tank
   
   
  Node Results at 1:00:00 hrs:
  --------------------------------------------------------
                     Demand      Head  Pressure  Chemical
  Node                  gpm        ft       psi      mg/L
  --------------------------------------------------------
  10                   0.00    239.70     40.17      0.00
  15                 620.00    126.77     41.07      0.00
  20                   0.00    158.85     12.94      0.00
  35                1706.00    148.70     59.02      0.00
  40                   0.00    145.65      5.96      0.00
  50                   0.00    138.66      9.60      0.00
  60                   0.00    209.16     90.63      0.00
  601                  0.00    303.45    131.48      0.00
  61                   0.00    303.45    131.48      0.00
  101                368.50    172.80     56.68      0.00
  103                258.41    170.18     55.11      0.00
  105                262.62    163.49     58.49      0.00
  107                106.00    162.76     60.99      0.00
  109                448.92    164.39     62.43      0.00
  111                275.36    157.94     64.10      0.00
  113                 38.82    155.99     66.72      0.00
  115                101.07    158.76     62.73      0.00
  117                228.36    160.57     63.68      0.00
  119                341.69    161.00     68.89      0.00
  120                  0.00    161.00     69.76      0.00
  121                 80.76    163.91     71.89      0.00
  123                  0.00    168.30     68.16      0.00
  125                 88.46    162.96     65.84      0.00
  127                 34.26    160.15     45.13      0.00
  129                  0.00    160.13     47.29      0.00
  131                 82.93    160.09     66.77      0.00
  139                 11.43    154.24     53.40      0.00
  141                 19.11    150.14     63.32      0.00
  143                 12.03    139.21     62.27      0.00
  145                 53.60    151.40     65.17      0.00
  147                 16.59    152.43     58.03      0.00
  149                 52.52    152.88     59.31      0.00
  151                280.29    157.50     53.73      0.00
  153                 85.69    157.58     39.59      0.00
  157                100.47    158.53     63.01      0.00
  159                 80.16    155.16     64.63      0.00
  161                 30.65    152.88     64.51      0.00
  163                 18.27    152.40     63.87      0.00
  164                  0.00    152.40     63.87      0.00
  166                  5.04    152.40     66.90      0.00
  167                 28.25    150.40     67.33      0.00
  169                  0.00    150.40     67.33      0.00
  171                 76.32    149.09     66.33      0.00
  173                  0.00    149.06     66.32      0.00
  177                112.85    148.67     60.95      0.00
  179                  0.00    148.65     60.94      0.00
  181                  0.00    148.71     60.97      0.00
  183                  0.00    148.77     59.70      0.00
  184                  0.00    147.69     57.06      0.00
  185                 49.76    148.50     57.41      0.00
  187                  0.00    150.17     59.65      0.00
  189                209.36    150.11     63.31      0.00
  191                158.89    152.75     55.36      0.00
  193                138.34    152.77     58.40      0.00
  195                  0.00    152.77     59.48      0.00
  197                 33.06    154.17     56.84      0.00
  199                231.48    142.74     62.71      0.00
  201                 86.54    141.88     61.43      0.00
  203               4531.00    141.71     60.54      0.00
  204                  0.00    149.58     55.71      0.00
  205                126.80    142.64     52.71      0.00
  206                  0.00    140.85     60.60      0.00
  207                134.62    141.50     57.41      0.00
  208                  0.00    140.12     53.78      0.00
  209                  1.69    138.84     61.03      0.00
  211                 16.82    138.42     56.94      0.00
  213                 27.04    138.27     56.88      0.00
  215                178.85    137.89     56.71      0.00
  217                 46.99    137.85     57.13      0.00
  219                 80.16    137.82     57.99      0.00
  225                 44.23    137.83     56.26      0.00
  229                124.51    137.87     55.19      0.00
  231                 31.97    137.86     57.57      0.00
  237                 30.28    137.98     53.72      0.00
  239                 86.54    137.94     54.14      0.00
  241                  0.00    137.94     54.14      0.00
  243                  8.42    137.94     53.70      0.00
  247                136.54    137.94     51.97      0.00
  249                  0.00    137.94     51.97      0.00
  251                 46.87    137.94     46.77      0.00
  253                105.77    137.91     44.16      0.00
  255                 78.36    138.01     48.10      0.00
  257                  0.00    161.04     62.41      0.00
  259                  0.00    161.08     58.96      0.00
  261                  0.00    161.02     69.77      0.00
  263                  0.00    161.25     69.87      0.00
  265                  0.00    151.07     65.46      0.00
  267                  0.00    151.32     56.47      0.00
  269                  0.00    150.16     65.06      0.00
  271                  0.00    148.82     61.88      0.00
  273                  0.00    142.65     58.34      0.00
  275                  0.00    141.86     57.13      0.00
  River           -13062.03    220.00      0.00      0.00  Reservoir
  Lake             -3435.20    167.00      0.00      0.00  Reservoir
  1                  996.56    145.65      5.96      0.00  Tank
  2                 -307.71    138.66      9.60      0.00  Tank
  3                 3038.04    158.85     12.94      0.00  Tank
   
   
  Node Results at 2:00:00 hrs:
  --------------------------------------------------------
                     Demand      Head  Pressure  Chemical
  Node                  gpm        ft       psi      mg/L
  --------------------------------------------------------
  10                   0.00    241.37     40.89      0.00
  15                 620.00    130.44     42.65      0.00
  20                   0.00    160.01     13.44      0.00
  35                1719.00    151.70     60.32      0.00
  40                   0.00    147.06      6.57      0.00
  50                   0.00    137.40      9.06      0.00
  60                   0.00    209.30     90.69      0.00
  601                  0.00    304.38    131.89      0.00
  61                   0.00    304.38    131.89      0.00
  101                277.33    178.21     59.02      0.00
  103                194.47    175.75     57.52      0.00
  105                197.64    168.17     60.52      0.00
  107                 79.77    167.47     63.03      0.00
  109                337.84    169.97     64.85      0.00
  111                207.23    162.31     65.99      0.00
  113                 29.21    160.04     68.48      0.00
  115                 76.07    162.94     64.53      0.00
  117                171.86    164.13     65.22      0.00
  119                257.15    164.00     70.20      0.00
  120                  0.00    164.18     71.14      0.00
  121                 60.78    166.61     73.06      0.00
  123                  0.00    170.95     69.31      0.00
  125                 66.58    165.43     66.92      0.00
  127                 25.78    161.80     45.84      0.00
  129                  0.00    161.79     48.00      0.00
  131                 62.42    161.76     67.49      0.00
  139                  8.60    157.04     54.61      0.00
  141                 14.38    153.71     64.87      0.00
  143                  9.05    142.87     63.86      0.00
  145                 40.34    155.14     66.79      0.00
  147                 12.48    156.22     59.67      0.00
  149                 39.52    156.68     60.96      0.00
  151                210.94    161.19     55.33      0.00
  153                 64.49    161.26     41.19      0.00
  157                 75.61    161.59     64.34      0.00
  159                 60.33    158.28     65.98      0.00
  161                 23.07    156.03     65.87      0.00
  163                 13.75    155.54     65.23      0.00
  164                  0.00    155.54     65.23      0.00
  166                  3.80    155.54     68.26      0.00
  167                 21.26    153.50     68.68      0.00
  169                  0.00    153.50     68.68      0.00
  171                 57.44    152.14     67.66      0.00
  173                  0.00    152.12     67.65      0.00
  177                 84.93    151.66     62.25      0.00
  179                  0.00    151.62     62.23      0.00
  181                  0.00    151.71     62.27      0.00
  183                  0.00    151.78     61.00      0.00
  184                  0.00    150.78     58.40      0.00
  185                 37.45    151.59     58.75      0.00
  187                  0.00    153.39     61.05      0.00
  189                157.56    153.30     64.69      0.00
  191                119.57    156.32     56.90      0.00
  193                104.11    156.32     59.93      0.00
  195                  0.00    156.31     61.01      0.00
  197                 24.88    157.99     58.49      0.00
  199                174.21    145.76     64.03      0.00
  201                 65.13    144.90     62.74      0.00
  203               4511.00    144.73     61.84      0.00
  204                  0.00    152.76     57.09      0.00
  205                 95.43    145.63     54.00      0.00
  206                  0.00    143.29     61.65      0.00
  207                101.31    144.26     58.61      0.00
  208                  0.00    142.18     54.67      0.00
  209                  1.27    140.26     61.64      0.00
  211                 12.66    139.62     57.46      0.00
  213                 20.35    139.49     57.41      0.00
  215                134.60    139.26     57.31      0.00
  217                 35.36    139.24     57.73      0.00
  219                 60.33    139.22     58.59      0.00
  225                 33.29    139.23     56.86      0.00
  229                 93.70    138.32     55.38      0.00
  231                 24.06    138.31     57.77      0.00
  237                 22.79    138.30     53.86      0.00
  239                 65.13    137.96     54.15      0.00
  241                  0.00    137.96     54.15      0.00
  243                  6.34    137.96     53.71      0.00
  247                102.75    137.88     51.94      0.00
  249                  0.00    137.88     51.94      0.00
  251                 35.27    137.79     46.71      0.00
  253                 79.60    137.47     43.97      0.00
  255                 58.97    137.53     47.89      0.00
  257                  0.00    164.52     63.92      0.00
  259                  0.00    164.60     60.49      0.00
  261                  0.00    164.62     71.33      0.00
  263                  0.00    164.93     71.46      0.00
  265                  0.00    154.19     66.81      0.00
  267                  0.00    154.63     57.90      0.00
  269                  0.00    153.32     66.43      0.00
  271                  0.00    151.84     63.19      0.00
  273                  0.00    145.65     59.65      0.00
  275                  0.00    144.84     58.43      0.00
  River           -12972.12    220.00      0.00      0.00  Reservoir
  Lake             -3330.25    167.00      0.00      0.00  Reservoir
  1                 1249.69    147.06      6.57      0.00  Tank
  2                  132.71    137.40      9.06      0.00  Tank
  3                 3619.73    160.01     13.44      0.00  Tank
   
   
  Node Results at 3:00:00 hrs:
  --------------------------------------------------------
                     Demand      Head  Pressure  Chemical
  Node                  gpm        ft       psi      mg/L
  --------------------------------------------------------
  10                   0.00    241.72     41.04      0.00
  15                 620.00    131.79     43.24      0.00
  20                   0.00    161.38     14.03      0.00
  35                1719.00    152.98     60.87      0.00
  40                   0.00    148.83      7.33      0.00
  50                   0.00    137.94      9.29      0.00
  60                   0.00    209.36     90.72      0.00
  601                  0.00    304.81    132.07      0.00
  61                   0.00    304.81    132.07      0.00
  101                273.53    179.34     59.51      0.00
  103                191.81    176.92     58.03      0.00
  105                194.93    169.41     61.06      0.00
  107                 78.68    168.71     63.57      0.00
  109                333.22    171.19     65.38      0.00
  111                204.39    163.57     66.54      0.00
  113                 28.81    161.31     69.03      0.00
  115                 75.02    164.20     65.08      0.00
  117                169.50    165.40     65.77      0.00
  119                253.63    165.27     70.75      0.00
  120                  0.00    165.45     71.69      0.00
  121                 59.95    167.87     73.61      0.00
  123                  0.00    172.19     69.84      0.00
  125                 65.66    166.72     67.47      0.00
  127                 25.43    163.14     46.42      0.00
  129                  0.00    163.13     48.59      0.00
  131                 61.56    163.11     68.07      0.00
  139                  8.48    158.39     55.20      0.00
  141                 14.18    155.06     65.45      0.00
  143                  8.93    144.22     64.44      0.00
  145                 39.79    156.48     67.37      0.00
  147                 12.31    157.56     60.26      0.00
  149                 38.98    158.02     61.54      0.00
  151                208.05    162.50     55.90      0.00
  153                 63.60    162.57     41.76      0.00
  157                 74.58    162.86     64.89      0.00
  159                 59.50    159.54     66.53      0.00
  161                 22.75    157.29     66.42      0.00
  163                 13.56    156.80     65.78      0.00
  164                  0.00    156.80     65.78      0.00
  166                  3.74    156.80     68.81      0.00
  167                 20.97    154.76     69.22      0.00
  169                  0.00    154.76     69.22      0.00
  171                 56.65    153.40     68.20      0.00
  173                  0.00    153.37     68.19      0.00
  177                 83.76    152.94     62.80      0.00
  179                  0.00    152.90     62.79      0.00
  181                  0.00    152.98     62.82      0.00
  183                  0.00    153.06     61.55      0.00
  184                  0.00    152.01     58.93      0.00
  185                 36.94    152.85     59.30      0.00
  187                  0.00    154.66     61.60      0.00
  189                155.40    154.56     65.24      0.00
  191                117.94    157.59     57.45      0.00
  193                102.69    157.59     60.48      0.00
  195                  0.00    157.58     61.56      0.00
  197                 24.54    159.26     59.04      0.00
  199                171.82    146.84     64.49      0.00
  201                 64.24    145.95     63.20      0.00
  203               4582.00    145.78     62.30      0.00
  204                  0.00    154.02     57.64      0.00
  205                 94.12    146.71     54.47      0.00
  206                  0.00    144.27     62.08      0.00
  207                 99.92    145.29     59.05      0.00
  208                  0.00    143.12     55.08      0.00
  209                  1.25    141.12     62.01      0.00
  211                 12.48    140.45     57.82      0.00
  213                 20.07    140.31     57.76      0.00
  215                132.75    140.09     57.67      0.00
  217                 34.88    140.07     58.09      0.00
  219                 59.50    140.06     58.95      0.00
  225                 32.83    140.06     57.22      0.00
  229                 92.42    139.06     55.70      0.00
  231                 23.73    139.05     58.09      0.00
  237                 22.48    139.02     54.17      0.00
  239                 64.24    138.66     54.45      0.00
  241                  0.00    138.65     54.45      0.00
  243                  6.25    138.65     54.01      0.00
  247                101.35    138.56     52.24      0.00
  249                  0.00    138.56     52.24      0.00
  251                 34.79    138.46     47.00      0.00
  253                 78.51    138.08     44.23      0.00
  255                 58.16    138.14     48.16      0.00
  257                  0.00    165.78     64.47      0.00
  259                  0.00    165.86     61.04      0.00
  261                  0.00    165.88     71.88      0.00
  263                  0.00    166.19     72.01      0.00
  265                  0.00    155.44     67.35      0.00
  267                  0.00    155.90     58.45      0.00
  269                  0.00    154.58     66.98      0.00
  271                  0.00    153.10     63.74      0.00
  273                  0.00    146.73     60.11      0.00
  275                  0.00    145.89     58.88      0.00
  River           -12929.88    220.00      0.00      0.00  Reservoir
  Lake             -3307.91    167.00      0.00      0.00  Reservoir
  1                 1176.83    148.83      7.33      0.00  Tank
  2                  164.68    137.94      9.29      0.00  Tank
  3                 3586.00    161.38     14.03      0.00  Tank
   
   
  Node Results at 4:00:00 hrs:
  --------------------------------------------------------
                     Demand      Head  Pressure  Chemical
  Node                  gpm        ft       psi      mg/L
  --------------------------------------------------------
  10                   0.00    244.31     42.16      0.00
  15                 620.00    136.89     45.45      0.00
  20                   0.00    162.74     14.62      0.00
  35                1791.00    157.83     62.97      0.00
  40                   0.00    150.49      8.05      0.00
  50                   0.00    138.61      9.58      0.00
  60                   0.00    209.57     90.81      0.00
  601                  0.00    306.26    132.70      0.00
  61                   0.00    306.26    132.70      0.00
  101                144.36    187.67     63.12      0.00
  103                101.23    185.48     61.74      0.00
  105                102.88    176.88     64.29      0.00
  107                 41.53    176.18     66.81      0.00
  109                175.86    179.80     69.11      0.00
  111                107.87    170.38     69.49      0.00
  113                 15.21    167.75     71.82      0.00
  115                 39.60    170.71     67.90      0.00
  117                 89.46    171.11     68.25      0.00
  119                133.86    169.89     72.74      0.00
  120                  0.00    170.71     73.97      0.00
  121                 31.64    172.05     75.42      0.00
  123                  0.00    176.28     71.62      0.00
  125                 34.66    170.49     69.11      0.00
  127                 13.42    165.42     47.41      0.00
  129                  0.00    165.42     49.58      0.00
  131                 32.49    165.41     69.07      0.00
  139                  4.48    162.28     56.88      0.00
  141                  7.49    160.03     67.61      0.00
  143                  4.71    149.33     66.65      0.00
  145                 21.00    161.75     69.66      0.00
  147                  6.50    162.94     62.59      0.00
  149                 20.57    163.43     63.88      0.00
  151                109.80    167.87     58.22      0.00
  153                 33.57    167.93     44.08      0.00
  157                 39.36    167.60     66.94      0.00
  159                 31.40    164.42     68.64      0.00
  161                 12.01    162.26     68.57      0.00
  163                  7.16    161.78     67.93      0.00
  164                  0.00    161.78     67.93      0.00
  166                  1.98    161.78     70.97      0.00
  167                 11.07    159.76     71.39      0.00
  169                  0.00    159.76     71.39      0.00
  171                 29.90    158.37     70.35      0.00
  173                  0.00    158.34     70.34      0.00
  177                 44.21    157.77     64.89      0.00
  179                  0.00    157.69     64.86      0.00
  181                  0.00    157.84     64.93      0.00
  183                  0.00    157.93     63.66      0.00
  184                  0.00    157.09     61.14      0.00
  185                 19.49    157.88     61.48      0.00
  187                  0.00    159.88     63.86      0.00
  189                 82.02    159.68     67.46      0.00
  191                 62.24    163.44     59.99      0.00
  193                 54.20    163.44     63.02      0.00
  195                  0.00    163.41     64.09      0.00
  197                 12.95    165.42     61.71      0.00
  199                 90.68    152.25     66.83      0.00
  201                 33.90    151.38     65.55      0.00
  203               4531.00    151.21     64.65      0.00
  204                  0.00    159.18     59.87      0.00
  205                 49.67    152.14     56.82      0.00
  206                  0.00    149.64     64.41      0.00
  207                 52.74    150.74     61.42      0.00
  208                  0.00    148.40     57.37      0.00
  209                  0.66    146.25     64.24      0.00
  211                  6.59    145.52     60.02      0.00
  213                 10.59    145.44     59.99      0.00
  215                 70.06    145.37     59.96      0.00
  217                 18.41    145.37     60.39      0.00
  219                 31.40    145.36     61.25      0.00
  225                 17.33    145.36     59.52      0.00
  229                 48.78    143.58     57.66      0.00
  231                 12.52    143.58     60.05      0.00
  237                 11.86    143.26     56.01      0.00
  239                 33.90    142.50     56.11      0.00
  241                  0.00    142.49     56.11      0.00
  243                  3.30    142.49     55.68      0.00
  247                 53.49    142.25     53.84      0.00
  249                  0.00    142.25     53.84      0.00
  251                 18.36    141.97     48.52      0.00
  253                 41.44    140.60     45.32      0.00
  255                 30.70    140.62     49.23      0.00
  257                  0.00    171.43     66.92      0.00
  259                  0.00    171.58     63.51      0.00
  261                  0.00    171.73     74.41      0.00
  263                  0.00    172.17     74.60      0.00
  265                  0.00    160.44     69.52      0.00
  267                  0.00    161.28     60.78      0.00
  269                  0.00    159.68     69.19      0.00
  271                  0.00    157.99     65.86      0.00
  273                  0.00    152.16     62.46      0.00
  275                  0.00    151.32     61.24      0.00
  River           -12789.79    220.00      0.00      0.00  Reservoir
  Lake             -3139.84    167.00      0.00      0.00  Reservoir
  1                 1600.38    150.49      8.05      0.00  Tank
  2                  569.30    138.61      9.58      0.00  Tank
  3                 4501.38    162.74     14.62      0.00  Tank
   
   
  Node Results at 5:00:00 hrs:
  --------------------------------------------------------
                     Demand      Head  Pressure  Chemical
  Node                  gpm        ft       psi      mg/L
  --------------------------------------------------------
  10                   0.00    242.16     41.23      0.00
  15                 360.00    150.32     51.27      0.00
  20                   0.00    163.30     14.86      0.00
  35                1819.00    152.55     60.68      0.00
  40                   0.00    151.80      8.62      0.00
  50                   0.00    140.30     10.31      0.00
  60                   0.00    215.88     93.54      0.00
  601                  0.00    215.87     93.54      0.00
  61                   0.00    215.87     93.54      0.00
  101                174.75    180.76     60.12      0.00
  103                122.54    178.41     58.67      0.00
  105                124.54    169.25     60.99      0.00
  107                 50.27    168.53     63.49      0.00
  109                212.89    172.44     65.92      0.00
  111                130.58    162.97     66.28      0.00
  113                 18.41    160.66     68.75      0.00
  115                 47.93    163.14     64.62      0.00
  117                108.29    163.28     64.85      0.00
  119                162.04    161.67     69.19      0.00
  120                  0.00    162.62     70.46      0.00
  121                 38.30    163.24     71.60      0.00
  123               1219.00    164.46     66.50      0.00
  125                 41.95    163.24     65.97      0.00
  127                 16.25    163.26     46.48      0.00
  129                  0.00    163.26     48.64      0.00
  131                 39.33    163.25     68.13      0.00
  139                  5.42    160.67     56.19      0.00
  141                  9.06    158.83     67.09      0.00
  143                  5.70    154.87     69.05      0.00
  145                 25.42    159.20     68.55      0.00
  147                  7.87    159.49     61.09      0.00
  149                 24.90    159.62     62.23      0.00
  151                132.92    160.91     55.21      0.00
  153                 40.64    160.96     41.06      0.00
  157                 47.65    159.91     63.61      0.00
  159                 38.01    157.47     65.63      0.00
  161                 14.54    155.81     65.78      0.00
  163                  8.67    155.44     65.19      0.00
  164                  0.00    155.44     65.19      0.00
  166                  2.39    155.44     68.22      0.00
  167                 13.40    153.89     68.85      0.00
  169                  0.00    153.89     68.85      0.00
  171                 36.19    152.81     67.95      0.00
  173                  0.00    152.78     67.93      0.00
  177                 53.52    152.56     62.64      0.00
  179                  0.00    152.56     62.64      0.00
  181                  0.00    152.56     62.64      0.00
  183                  0.00    152.68     61.39      0.00
  184                  0.00    151.72     58.81      0.00
  185                 23.60    152.48     59.14      0.00
  187                  0.00    154.05     61.34      0.00
  189                 99.29    153.87     64.94      0.00
  191                 75.35    156.94     57.17      0.00
  193                 65.61    156.94     60.20      0.00
  195                  0.00    156.91     61.28      0.00
  197                 15.68    158.65     58.78      0.00
  199                109.77    146.96     64.55      0.00
  201                 41.04    146.13     63.27      0.00
  203               4582.00    145.95     62.37      0.00
  204                  0.00    153.50     57.41      0.00
  205                 60.13    146.92     54.56      0.00
  206                  0.00    145.20     62.48      0.00
  207                 63.84    145.85     59.30      0.00
  208                  0.00    144.45     55.66      0.00
  209                  0.80    143.15     62.89      0.00
  211                  7.98    142.72     58.81      0.00
  213                 12.82    142.65     58.78      0.00
  215                 84.81    142.55     58.73      0.00
  217                 22.28    142.54     59.16      0.00
  219                 38.01    142.53     60.03      0.00
  225                 20.98    142.54     58.29      0.00
  229                 59.05    141.71     56.85      0.00
  231                 15.16    141.71     59.24      0.00
  237                 14.36    141.64     55.31      0.00
  239                 41.04    141.32     55.60      0.00
  241                  0.00    141.32     55.60      0.00
  243                  3.99    141.32     55.17      0.00
  247                 64.75    141.23     53.39      0.00
  249                  0.00    141.23     53.39      0.00
  251                 22.23    141.13     48.15      0.00
  253                 50.16    140.70     45.37      0.00
  255                 37.16    140.73     49.28      0.00
  257                  0.00    163.49     63.48      0.00
  259                  0.00    163.66     60.08      0.00
  261                  0.00    163.89     71.01      0.00
  263                  0.00    164.34     71.21      0.00
  265                  0.00    154.42     66.91      0.00
  267                  0.00    155.16     58.13      0.00
  269                  0.00    153.86     66.67      0.00
  271                  0.00    152.63     63.54      0.00
  273                  0.00    146.92     60.20      0.00
  275                  0.00    146.11     58.98      0.00
  River            -7751.18    220.00      0.00      0.00  Reservoir
  Lake             -3279.91    167.00      0.00      0.00  Reservoir
  1                  475.63    151.80      8.62      0.00  Tank
  2                  248.17    140.30     10.31      0.00  Tank
  3                 -476.98    163.30     14.86      0.00  Tank
   
   
  Node Results at 6:00:00 hrs:
  --------------------------------------------------------
                     Demand      Head  Pressure  Chemical
  Node                  gpm        ft       psi      mg/L
  --------------------------------------------------------
  10                   0.00    242.47     41.37      0.00
  15                 360.00    150.76     51.46      0.00
  20                   0.00    163.12     14.79      0.00
  35                1777.00    153.33     61.02      0.00
  40                   0.00    152.47      8.91      0.00
  50                   0.00    141.31     10.75      0.00
  60                   0.00    215.94     93.57      0.00
  601                  0.00    215.94     93.57      0.00
  61                   0.00    215.94     93.57      0.00
  101                161.46    181.75     60.55      0.00
  103                113.22    179.44     59.12      0.00
  105                115.06    170.18     61.39      0.00
  107                 46.44    169.46     63.90      0.00
  109                196.69    173.47     66.37      0.00
  111                120.65    163.82     66.65      0.00
  113                 17.01    161.49     69.11      0.00
  115                 44.28    163.96     64.98      0.00
  117                100.05    164.05     65.19      0.00
  119                149.71    162.21     69.42      0.00
  120                  0.00    163.25     70.74      0.00
  121                 35.39    163.72     71.81      0.00
  123                  0.00    165.36     66.89      0.00
  125                 38.76    163.59     66.12      0.00
  127                 15.01    163.25     46.47      0.00
  129                  0.00    163.24     48.64      0.00
  131                 36.34    163.24     68.13      0.00
  139                  5.01    160.92     56.29      0.00
  141                  8.37    159.26     67.28      0.00
  143                  5.27    155.30     69.24      0.00
  145                 23.49    159.67     68.75      0.00
  147                  7.27    159.98     61.30      0.00
  149                 23.01    160.12     62.45      0.00
  151                122.81    161.46     55.45      0.00
  153                 37.54    161.50     41.29      0.00
  157                 44.02    160.50     63.87      0.00
  159                 35.12    158.13     65.92      0.00
  161                 13.43    156.52     66.09      0.00
  163                  8.01    156.16     65.50      0.00
  164                  0.00    156.16     65.50      0.00
  166                  2.21    156.16     68.53      0.00
  167                 12.38    154.65     69.17      0.00
  169                  0.00    154.65     69.17      0.00
  171                 33.44    153.58     68.28      0.00
  173                  0.00    153.56     68.27      0.00
  177                 49.44    153.33     62.97      0.00
  179                  0.00    153.33     62.97      0.00
  181                  0.00    153.33     62.97      0.00
  183                  0.00    153.45     61.72      0.00
  184                  0.00    152.52     59.16      0.00
  185                 21.80    153.27     59.48      0.00
  187                  0.00    154.84     61.67      0.00
  189                 91.73    154.64     65.27      0.00
  191                 69.61    157.75     57.52      0.00
  193                 60.61    157.75     60.55      0.00
  195                  0.00    157.72     61.62      0.00
  197                 14.48    159.48     59.14      0.00
  199                101.42    147.83     64.92      0.00
  201                 37.92    147.01     63.65      0.00
  203               4572.00    146.83     62.76      0.00
  204                  0.00    154.29     57.75      0.00
  205                 55.56    147.80     54.94      0.00
  206                  0.00    146.14     62.89      0.00
  207                 58.98    146.77     59.70      0.00
  208                  0.00    145.43     56.08      0.00
  209                  0.74    144.21     63.35      0.00
  211                  7.37    143.79     59.27      0.00
  213                 11.85    143.73     59.24      0.00
  215                 78.36    143.64     59.21      0.00
  217                 20.59    143.64     59.64      0.00
  219                 35.12    143.63     60.50      0.00
  225                 19.38    143.63     58.77      0.00
  229                 54.55    142.82     57.33      0.00
  231                 14.01    142.81     59.71      0.00
  237                 13.27    142.73     55.78      0.00
  239                 37.92    142.42     56.08      0.00
  241                  0.00    142.42     56.08      0.00
  243                  3.69    142.42     55.64      0.00
  247                 59.82    142.32     53.87      0.00
  249                  0.00    142.32     53.87      0.00
  251                 20.54    142.22     48.63      0.00
  253                 46.34    141.78     45.83      0.00
  255                 34.33    141.80     49.74      0.00
  257                  0.00    164.21     63.79      0.00
  259                  0.00    164.39     60.40      0.00
  261                  0.00    164.66     71.35      0.00
  263                  0.00    165.12     71.54      0.00
  265                  0.00    155.16     67.23      0.00
  267                  0.00    155.94     58.47      0.00
  269                  0.00    154.62     67.00      0.00
  271                  0.00    153.41     63.87      0.00
  273                  0.00    147.80     60.58      0.00
  275                  0.00    146.99     59.36      0.00
  River            -7682.94    220.00      0.00      0.00  Reservoir
  Lake             -3260.06    167.00      0.00      0.00  Reservoir
  1                  508.82    152.47      8.91      0.00  Tank
  2                  264.91    141.31     10.75      0.00  Tank
  3                  869.37    163.12     14.79      0.00  Tank
   
   
  Node Results at 7:00:00 hrs:
  --------------------------------------------------------
                     Demand      Head  Pressure  Chemical
  Node                  gpm        ft       psi      mg/L
  --------------------------------------------------------
  10                   0.00    242.01     41.17      0.00
  15                   0.00    162.44     56.52      0.00
  20                   0.00    163.45     14.93      0.00
  35                1842.00    153.44     61.07      0.00
  40                   0.00    153.19      9.22      0.00
  50                   0.00    142.40     11.22      0.00
  60                   0.00    215.96     93.58      0.00
  601                  0.00    215.96     93.58      0.00
  61                   0.00    215.96     93.57      0.00
  101                203.25    180.26     59.91      0.00
  103                142.52    177.90     58.45      0.00
  105                144.85    169.11     60.93      0.00
  107                 58.46    168.41     63.44      0.00
  109                247.60    172.03     65.75      0.00
  111                151.88    163.17     66.37      0.00
  113                 21.41    160.99     68.89      0.00
  115                 55.75    163.38     64.73      0.00
  117                125.95    163.61     65.00      0.00
  119                188.46    162.43     69.52      0.00
  120                  0.00    163.18     70.71      0.00
  121                 44.54    163.96     71.91      0.00
  123                  0.00    165.60     66.99      0.00
  125                 48.79    163.86     66.23      0.00
  127                 18.90    163.57     46.61      0.00
  129                  0.00    163.57     48.78      0.00
  131                 45.74    163.56     68.27      0.00
  139                  6.30    162.89     57.15      0.00
  141                 10.54    162.45     68.65      0.00
  143                  6.63    162.44     72.34      0.00
  145                 29.56    162.37     69.92      0.00
  147                  9.15    162.36     62.33      0.00
  149                 28.96    162.35     63.41      0.00
  151                154.59    162.35     55.83      0.00
  153                 47.26    162.37     41.67      0.00
  157                 55.42    160.68     63.94      0.00
  159                 44.21    158.26     65.97      0.00
  161                 16.91    156.61     66.13      0.00
  163                 10.08    156.25     65.54      0.00
  164                  0.00    156.25     65.54      0.00
  166                  2.78    156.25     68.57      0.00
  167                 15.58    154.72     69.21      0.00
  169                  0.00    154.72     69.21      0.00
  171                 42.09    153.67     68.32      0.00
  173                  0.00    153.64     68.31      0.00
  177                 62.24    153.45     63.02      0.00
  179                  0.00    153.45     63.02      0.00
  181                  0.00    153.45     63.02      0.00
  183                  0.00    153.55     61.77      0.00
  184                  0.00    152.54     59.16      0.00
  185                 27.45    153.31     59.50      0.00
  187                  0.00    154.82     61.67      0.00
  189                115.47    154.67     65.29      0.00
  191                 87.63    157.49     57.41      0.00
  193                 76.30    157.49     60.44      0.00
  195                  0.00    157.48     61.52      0.00
  197                 18.23    159.10     58.97      0.00
  199                127.67    147.75     64.89      0.00
  201                 47.73    146.91     63.61      0.00
  203               4613.00    146.73     62.71      0.00
  204                  0.00    154.29     57.75      0.00
  205                 69.94    147.71     54.90      0.00
  206                  0.00    146.09     62.87      0.00
  207                 74.25    146.68     59.66      0.00
  208                  0.00    145.42     56.08      0.00
  209                  0.93    144.26     63.37      0.00
  211                  9.28    143.86     59.30      0.00
  213                 14.92    143.79     59.27      0.00
  215                 98.64    143.66     59.22      0.00
  217                 25.92    143.65     59.64      0.00
  219                 44.21    143.64     60.51      0.00
  225                 24.40    143.64     58.77      0.00
  229                 68.67    143.06     57.44      0.00
  231                 17.63    143.05     59.82      0.00
  237                 16.70    143.04     55.91      0.00
  239                 47.73    142.82     56.25      0.00
  241                  0.00    142.82     56.25      0.00
  243                  4.64    142.82     55.82      0.00
  247                 75.31    142.76     54.06      0.00
  249                  0.00    142.76     54.06      0.00
  251                 25.85    142.70     48.83      0.00
  253                 58.34    142.48     46.14      0.00
  255                 43.22    142.52     50.05      0.00
  257                  0.00    163.89     63.65      0.00
  259                  0.00    164.04     60.24      0.00
  261                  0.00    164.19     71.14      0.00
  263                  0.00    164.61     71.33      0.00
  265                  0.00    155.24     67.26      0.00
  267                  0.00    155.87     58.44      0.00
  269                  0.00    154.67     67.02      0.00
  271                  0.00    153.51     63.92      0.00
  273                  0.00    147.71     60.54      0.00
  275                  0.00    146.90     59.32      0.00
  River            -7664.82    220.00      0.00      0.00  Reservoir
  Lake             -3289.86    167.00      0.00      0.00  Reservoir
  1                  268.68    153.19      9.22      0.00  Tank
  2                  125.26    142.40     11.22      0.00  Tank
  3                  844.25    163.45     14.93      0.00  Tank
   
   
  Node Results at 8:00:00 hrs:
  --------------------------------------------------------
                     Demand      Head  Pressure  Chemical
  Node                  gpm        ft       psi      mg/L
  --------------------------------------------------------
  10                   0.00    242.38     41.33      0.00
  15                   0.00    162.97     56.75      0.00
  20                   0.00    163.77     15.07      0.00
  35                1815.00    154.00     61.31      0.00
  40                   0.00    153.57      9.39      0.00
  50                   0.00    142.91     11.44      0.00
  60                   0.00    215.99     93.59      0.00
  601                  0.00    215.99     93.59      0.00
  61                   0.00    215.99     93.59      0.00
  101                182.35    181.47     60.43      0.00
  103                127.87    179.14     58.99      0.00
  105                129.96    170.18     61.39      0.00
  107                 52.45    169.47     63.90      0.00
  109                222.14    173.26     66.28      0.00
  111                136.26    164.07     66.76      0.00
  113                 19.21    161.82     69.25      0.00
  115                 50.02    164.24     65.10      0.00
  117                113.00    164.40     65.34      0.00
  119                169.08    162.94     69.74      0.00
  120                  0.00    163.82     70.98      0.00
  121                 39.96    164.42     72.11      0.00
  123                  0.00    166.04     67.18      0.00
  125                 43.78    164.29     66.42      0.00
  127                 16.95    163.93     46.77      0.00
  129                  0.00    163.93     48.93      0.00
  131                 41.04    163.92     68.43      0.00
  139                  5.65    163.36     57.35      0.00
  141                  9.46    162.97     68.88      0.00
  143                  5.95    162.97     72.57      0.00
  145                 26.52    162.91     70.16      0.00
  147                  8.21    162.90     62.57      0.00
  149                 25.99    162.89     63.65      0.00
  151                138.70    162.89     56.06      0.00
  153                 42.40    162.91     41.90      0.00
  157                 49.72    161.21     64.17      0.00
  159                 39.67    158.81     66.21      0.00
  161                 15.17    157.18     66.37      0.00
  163                  9.04    156.82     65.78      0.00
  164                  0.00    156.82     65.78      0.00
  166                  2.50    156.82     68.82      0.00
  167                 13.98    155.30     69.46      0.00
  169                  0.00    155.30     69.46      0.00
  171                 37.77    154.24     68.56      0.00
  173                  0.00    154.21     68.55      0.00
  177                 55.84    154.01     63.27      0.00
  179                  0.00    154.01     63.27      0.00
  181                  0.00    154.01     63.27      0.00
  183                  0.00    154.12     62.01      0.00
  184                  0.00    153.14     59.42      0.00
  185                 24.62    153.90     59.75      0.00
  187                  0.00    155.44     61.93      0.00
  189                103.60    155.27     65.55      0.00
  191                 78.62    158.22     57.72      0.00
  193                 68.46    158.22     60.76      0.00
  195                  0.00    158.20     61.83      0.00
  197                 16.36    159.88     59.31      0.00
  199                114.55    148.36     65.15      0.00
  201                 42.83    147.51     63.87      0.00
  203               4643.00    147.33     62.97      0.00
  204                  0.00    154.90     58.02      0.00
  205                 62.75    148.33     55.17      0.00
  206                  0.00    146.74     63.15      0.00
  207                 66.61    147.31     59.93      0.00
  208                  0.00    146.10     56.37      0.00
  209                  0.84    144.98     63.68      0.00
  211                  8.32    144.60     59.62      0.00
  213                 13.38    144.53     59.59      0.00
  215                 88.50    144.43     59.55      0.00
  217                 23.25    144.42     59.98      0.00
  219                 39.67    144.41     60.84      0.00
  225                 21.89    144.41     59.11      0.00
  229                 61.61    143.78     57.75      0.00
  231                 15.82    143.78     60.13      0.00
  237                 14.99    143.74     56.22      0.00
  239                 42.83    143.51     56.55      0.00
  241                  0.00    143.50     56.55      0.00
  243                  4.17    143.50     56.11      0.00
  247                 67.56    143.44     54.35      0.00
  249                  0.00    143.44     54.35      0.00
  251                 23.19    143.37     49.12      0.00
  253                 52.34    143.09     46.40      0.00
  255                 38.77    143.12     50.32      0.00
  257                  0.00    164.63     63.97      0.00
  259                  0.00    164.79     60.57      0.00
  261                  0.00    165.00     71.49      0.00
  263                  0.00    165.43     71.68      0.00
  265                  0.00    155.81     67.51      0.00
  267                  0.00    156.51     58.72      0.00
  269                  0.00    155.26     67.27      0.00
  271                  0.00    154.08     64.16      0.00
  273                  0.00    148.33     60.80      0.00
  275                  0.00    147.50     59.58      0.00
  River            -7631.38    220.00      0.00      0.00  Reservoir
  Lake             -3265.74    167.00      0.00      0.00  Reservoir
  1                  355.87    153.57      9.39      0.00  Tank
  2                  170.66    142.91     11.44      0.00  Tank
  3                  986.40    163.77     15.07      0.00  Tank
   
   
  Node Results at 9:00:00 hrs:
  --------------------------------------------------------
                     Demand      Head  Pressure  Chemical
  Node                  gpm        ft       psi      mg/L
  --------------------------------------------------------
  10                   0.00    241.99     41.16      0.00
  15                   0.00    162.56     56.57      0.00
  20                   0.00    164.15     15.23      0.00
  35                1825.00    154.05     61.33      0.00
  40                   0.00    154.07      9.61      0.00
  50                   0.00    143.60     11.74      0.00
  60                   0.00    215.91     93.55      0.00
  601                  0.00    215.91     93.55      0.00
  61                   0.00    215.91     93.55      0.00
  101                208.94    180.19     59.88      0.00
  103                146.52    177.84     58.43      0.00
  105                148.91    169.10     60.92      0.00
  107                 60.10    168.41     63.44      0.00
  109                254.54    172.00     65.73      0.00
  111                156.13    163.29     66.42      0.00
  113                 22.01    161.19     68.98      0.00
  115                 57.31    163.48     64.77      0.00
  117                129.48    163.67     65.02      0.00
  119                193.74    162.48     69.54      0.00
  120                  0.00    163.23     70.73      0.00
  121                 45.79    163.92     71.89      0.00
  123               1866.00    164.91     66.69      0.00
  125                 50.16    163.94     66.27      0.00
  127                 19.43    164.04     46.82      0.00
  129                  0.00    164.04     48.98      0.00
  131                 47.02    164.03     68.47      0.00
  139                  6.48    163.16     57.26      0.00
  141                 10.84    162.56     68.71      0.00
  143                  6.82    162.56     72.39      0.00
  145                 30.39    162.46     69.96      0.00
  147                  9.41    162.43     62.37      0.00
  149                 29.78    162.42     63.45      0.00
  151                158.93    162.41     55.86      0.00
  153                 48.59    162.43     41.70      0.00
  157                 56.97    160.82     64.01      0.00
  159                 45.45    158.54     66.10      0.00
  161                 17.38    157.00     66.29      0.00
  163                 10.36    156.65     65.71      0.00
  164                  0.00    156.65     65.71      0.00
  166                  2.86    156.65     68.75      0.00
  167                 16.02    155.22     69.42      0.00
  169                  0.00    155.22     69.42      0.00
  171                 43.27    154.22     68.56      0.00
  173                  0.00    154.20     68.55      0.00
  177                 63.99    154.06     63.29      0.00
  179                  0.00    154.07     63.29      0.00
  181                  0.00    154.06     63.29      0.00
  183                  0.00    154.16     62.03      0.00
  184                  0.00    153.10     59.40      0.00
  185                 28.22    153.87     59.74      0.00
  187                  0.00    155.31     61.88      0.00
  189                118.71    155.17     65.50      0.00
  191                 90.09    157.84     57.56      0.00
  193                 78.44    157.84     60.59      0.00
  195                  0.00    157.82     61.67      0.00
  197                 18.74    159.38     59.09      0.00
  199                131.25    148.30     65.13      0.00
  201                 49.07    147.46     63.85      0.00
  203               4643.00    147.28     62.95      0.00
  204                  0.00    154.80     57.97      0.00
  205                 71.90    148.27     55.15      0.00
  206                  0.00    146.74     63.15      0.00
  207                 76.33    147.27     59.91      0.00
  208                  0.00    146.13     56.39      0.00
  209                  0.96    145.07     63.73      0.00
  211                  9.54    144.72     59.67      0.00
  213                 15.33    144.65     59.64      0.00
  215                101.41    144.51     59.58      0.00
  217                 26.64    144.50     60.01      0.00
  219                 45.45    144.49     60.87      0.00
  225                 25.08    144.49     59.14      0.00
  229                 70.60    144.03     57.86      0.00
  231                 18.13    144.02     60.24      0.00
  237                 17.17    144.02     56.34      0.00
  239                 49.07    143.85     56.70      0.00
  241                  0.00    143.85     56.70      0.00
  243                  4.77    143.85     56.26      0.00
  247                 77.42    143.81     54.51      0.00
  249                  0.00    143.81     54.51      0.00
  251                 26.58    143.76     49.29      0.00
  253                 59.97    143.61     46.63      0.00
  255                 44.43    143.65     50.54      0.00
  257                  0.00    163.94     63.67      0.00
  259                  0.00    164.08     60.26      0.00
  261                  0.00    164.24     71.17      0.00
  263                  0.00    164.65     71.34      0.00
  265                  0.00    155.70     67.47      0.00
  267                  0.00    156.30     58.63      0.00
  269                  0.00    155.17     67.24      0.00
  271                  0.00    154.11     64.17      0.00
  273                  0.00    148.27     60.78      0.00
  275                  0.00    147.45     59.56      0.00
  River            -7717.07    220.00      0.00      0.00  Reservoir
  Lake             -3291.14    167.00      0.00      0.00  Reservoir
  1                   22.08    154.07      9.61      0.00  Tank
  2                   72.91    143.60     11.74      0.00  Tank
  3                 -773.71    164.15     15.23      0.00  Tank
   
   
  Node Results at 10:00:00 hrs:
  --------------------------------------------------------
                     Demand      Head  Pressure  Chemical
  Node                  gpm        ft       psi      mg/L
  --------------------------------------------------------
  10                   0.00    242.00     41.17      0.00
  15                   0.00    162.39     56.50      0.00
  20                   0.00    163.85     15.10      0.00
  35                1856.00    154.07     61.34      0.00
  40                   0.00    154.10      9.62      0.00
  50                   0.00    143.90     11.87      0.00
  60                   0.00    215.90     93.55      0.00
  601                  0.00    215.89     93.55      0.00
  61                   0.00    215.89     93.55      0.00
  101                205.15    180.25     59.90      0.00
  103                143.86    177.90     58.45      0.00
  105                146.20    169.10     60.92      0.00
  107                 59.01    168.41     63.44      0.00
  109                249.91    172.06     65.76      0.00
  111                153.30    163.27     66.41      0.00
  113                 21.61    161.18     68.97      0.00
  115                 56.27    163.44     64.75      0.00
  117                127.13    163.60     64.99      0.00
  119                190.22    162.32     69.47      0.00
  120                  0.00    163.11     70.67      0.00
  121                 44.96    163.72     71.81      0.00
  123               1836.00    164.73     66.61      0.00
  125                 49.25    163.73     66.18      0.00
  127                 19.07    163.79     46.70      0.00
  129                  0.00    163.78     48.87      0.00
  131                 46.17    163.77     68.36      0.00
  139                  6.36    162.95     57.17      0.00
  141                 10.64    162.39     68.63      0.00
  143                  6.70    162.39     72.31      0.00
  145                 29.84    162.30     69.89      0.00
  147                  9.23    162.27     62.30      0.00
  149                 29.24    162.26     63.38      0.00
  151                156.04    162.25     55.79      0.00
  153                 47.70    162.27     41.63      0.00
  157                 55.93    160.70     63.96      0.00
  159                 44.63    158.48     66.07      0.00
  161                 17.06    156.96     66.28      0.00
  163                 10.17    156.63     65.70      0.00
  164                  0.00    156.63     65.70      0.00
  166                  2.81    156.63     68.73      0.00
  167                 15.72    155.22     69.42      0.00
  169                  0.00    155.22     69.42      0.00
  171                 42.49    154.24     68.57      0.00
  173                  0.00    154.22     68.56      0.00
  177                 62.82    154.09     63.30      0.00
  179                  0.00    154.10     63.31      0.00
  181                  0.00    154.08     63.30      0.00
  183                  0.00    154.18     62.04      0.00
  184                  0.00    153.15     59.43      0.00
  185                 27.70    153.90     59.75      0.00
  187                  0.00    155.32     61.88      0.00
  189                116.55    155.19     65.51      0.00
  191                 88.45    157.84     57.56      0.00
  193                 77.01    157.84     60.59      0.00
  195                  0.00    157.82     61.67      0.00
  197                 18.40    159.37     59.09      0.00
  199                128.87    148.46     65.19      0.00
  201                 48.18    147.63     63.92      0.00
  203               4592.00    147.45     63.03      0.00
  204                  0.00    154.82     57.99      0.00
  205                 70.59    148.43     55.21      0.00
  206                  0.00    146.94     63.23      0.00
  207                 74.94    147.46     59.99      0.00
  208                  0.00    146.35     56.48      0.00
  209                  0.94    145.33     63.84      0.00
  211                  9.36    144.98     59.79      0.00
  213                 15.06    144.91     59.76      0.00
  215                 99.57    144.78     59.70      0.00
  217                 26.16    144.77     60.13      0.00
  219                 44.63    144.76     60.99      0.00
  225                 24.62    144.77     59.26      0.00
  229                 69.31    144.31     57.98      0.00
  231                 17.80    144.31     60.36      0.00
  237                 16.86    144.31     56.46      0.00
  239                 48.18    144.14     56.82      0.00
  241                  0.00    144.14     56.82      0.00
  243                  4.69    144.14     56.39      0.00
  247                 76.01    144.10     54.64      0.00
  249                  0.00    144.10     54.64      0.00
  251                 26.09    144.06     49.42      0.00
  253                 58.88    143.91     46.76      0.00
  255                 43.62    143.95     50.67      0.00
  257                  0.00    163.85     63.63      0.00
  259                  0.00    164.00     60.23      0.00
  261                  0.00    164.18     71.14      0.00
  263                  0.00    164.59     71.32      0.00
  265                  0.00    155.70     67.46      0.00
  267                  0.00    156.31     58.63      0.00
  269                  0.00    155.18     67.24      0.00
  271                  0.00    154.13     64.18      0.00
  273                  0.00    148.43     60.85      0.00
  275                  0.00    147.62     59.63      0.00
  River            -7731.31    220.00      0.00      0.00  Reservoir
  Lake             -3289.92    167.00      0.00      0.00  Reservoir
  1                  -13.66    154.10      9.62      0.00  Tank
  2                   72.20    143.90     11.87      0.00  Tank
  3                 -613.26    163.85     15.10      0.00  Tank
   
   
  Node Results at 11:00:00 hrs:
  --------------------------------------------------------
                     Demand      Head  Pressure  Chemical
  Node                  gpm        ft       psi      mg/L
  --------------------------------------------------------
  10                   0.00    241.67     41.02      0.00
  15                 360.00    150.04     51.15      0.00
  20                   0.00    163.62     15.00      0.00
  35                1801.00    153.90     61.27      0.00
  40                   0.00    154.08      9.61      0.00
  50                   0.00    144.20     12.00      0.00
  60                   0.00    215.87     93.54      0.00
  601                  0.00    215.87     93.53      0.00
  61                   0.00    215.86     93.53      0.00
  101                226.04    179.16     59.43      0.00
  103                158.51    176.79     57.97      0.00
  105                161.09    168.16     60.51      0.00
  107                 65.02    167.47     63.03      0.00
  109                275.37    170.97     65.29      0.00
  111                168.91    162.54     66.10      0.00
  113                 23.81    160.55     68.70      0.00
  115                 62.00    162.72     64.44      0.00
  117                140.07    162.92     64.70      0.00
  119                209.59    161.84     69.26      0.00
  120                  0.00    162.54     70.43      0.00
  121                 49.54    163.32     71.64      0.00
  123               1818.00    164.35     66.45      0.00
  125                 54.26    163.34     66.01      0.00
  127                 21.02    163.47     46.57      0.00
  129                  0.00    163.47     48.73      0.00
  131                 50.87    163.45     68.22      0.00
  139                  7.01    160.60     56.15      0.00
  141                 11.72    158.59     66.98      0.00
  143                  7.38    154.58     68.93      0.00
  145                 32.88    158.93     68.43      0.00
  147                 10.17    159.23     60.98      0.00
  149                 32.21    159.36     62.12      0.00
  151                171.93    160.77     55.15      0.00
  153                 52.56    160.81     41.00      0.00
  157                 61.63    160.27     63.77      0.00
  159                 49.17    158.11     65.91      0.00
  161                 18.80    156.65     66.14      0.00
  163                 11.21    156.32     65.57      0.00
  164                  0.00    156.32     65.57      0.00
  166                  3.09    156.32     68.60      0.00
  167                 17.33    154.97     69.31      0.00
  169                  0.00    154.97     69.31      0.00
  171                 46.81    154.03     68.48      0.00
  173                  0.00    154.01     68.47      0.00
  177                 69.22    153.92     63.23      0.00
  179                  0.00    153.94     63.24      0.00
  181                  0.00    153.90     63.22      0.00
  183                  0.00    154.01     61.97      0.00
  184                  0.00    152.92     59.33      0.00
  185                 30.52    153.67     59.65      0.00
  187                  0.00    155.03     61.76      0.00
  189                128.42    154.92     65.39      0.00
  191                 97.46    157.39     57.36      0.00
  193                 84.86    157.39     60.40      0.00
  195                  0.00    157.37     61.47      0.00
  197                 20.28    158.83     58.86      0.00
  199                141.99    148.19     65.08      0.00
  201                 53.09    147.36     63.81      0.00
  203               4613.00    147.19     62.91      0.00
  204                  0.00    154.56     57.87      0.00
  205                 77.78    148.16     55.10      0.00
  206                  0.00    146.74     63.15      0.00
  207                 82.57    147.21     59.89      0.00
  208                  0.00    146.19     56.41      0.00
  209                  1.04    145.25     63.80      0.00
  211                 10.32    144.93     59.77      0.00
  213                 16.59    144.86     59.73      0.00
  215                109.71    144.70     59.67      0.00
  217                 28.82    144.69     60.09      0.00
  219                 49.17    144.68     60.96      0.00
  225                 27.13    144.68     59.22      0.00
  229                 76.37    144.39     58.01      0.00
  231                 19.61    144.38     60.40      0.00
  237                 18.58    144.39     56.50      0.00
  239                 53.09    144.28     56.88      0.00
  241                  0.00    144.27     56.88      0.00
  243                  5.16    144.27     56.45      0.00
  247                 83.75    144.25     54.70      0.00
  249                  0.00    144.25     54.70      0.00
  251                 28.75    144.23     49.50      0.00
  253                 64.88    144.15     46.86      0.00
  255                 48.06    144.19     50.78      0.00
  257                  0.00    163.20     63.35      0.00
  259                  0.00    163.34     59.94      0.00
  261                  0.00    163.48     70.84      0.00
  263                  0.00    163.88     71.01      0.00
  265                  0.00    155.43     67.35      0.00
  267                  0.00    155.97     58.48      0.00
  269                  0.00    154.92     67.13      0.00
  271                  0.00    153.94     64.10      0.00
  273                  0.00    148.16     60.73      0.00
  275                  0.00    147.36     59.52      0.00
  River            -7759.91    220.00      0.00      0.00  Reservoir
  Lake             -3311.52    167.00      0.00      0.00  Reservoir
  1                 -189.38    154.08      9.61      0.00  Tank
  2                  -14.76    144.20     12.00      0.00  Tank
  3                 -943.68    163.62     15.00      0.00  Tank
   
   
  Node Results at 12:00:00 hrs:
  --------------------------------------------------------
                     Demand      Head  Pressure  Chemical
  Node                  gpm        ft       psi      mg/L
  --------------------------------------------------------
  10                   0.00    241.67     41.02      0.00
  15                 360.00    149.80     51.04      0.00
  20                   0.00    163.26     14.85      0.00
  35                1819.00    153.70     61.18      0.00
  40                   0.00    153.81      9.50      0.00
  50                   0.00    144.14     11.97      0.00
  60                   0.00    215.85     93.53      0.00
  601                  0.00    215.84     93.53      0.00
  61                   0.00    215.84     93.53      0.00
  101                220.34    179.19     59.44      0.00
  103                154.51    176.81     57.98      0.00
  105                157.03    168.10     60.49      0.00
  107                 63.38    167.41     63.01      0.00
  109                268.42    170.98     65.29      0.00
  111                164.65    162.42     66.04      0.00
  113                 23.21    160.42     68.64      0.00
  115                 60.44    162.59     64.38      0.00
  117                136.54    162.76     64.63      0.00
  119                204.31    161.58     69.15      0.00
  120                  0.00    162.32     70.33      0.00
  121                 48.29    163.03     71.51      0.00
  123               1818.00    164.06     66.32      0.00
  125                 52.90    163.05     65.88      0.00
  127                 20.49    163.14     46.42      0.00
  129                  0.00    163.14     48.59      0.00
  131                 49.59    163.12     68.08      0.00
  139                  6.83    160.32     56.03      0.00
  141                 11.43    158.35     66.88      0.00
  143                  7.19    154.35     68.83      0.00
  145                 32.05    158.70     68.33      0.00
  147                  9.92    159.00     60.88      0.00
  149                 31.40    159.13     62.02      0.00
  151                167.60    160.54     55.04      0.00
  153                 51.24    160.58     40.89      0.00
  157                 60.08    160.03     63.66      0.00
  159                 47.93    157.89     65.81      0.00
  161                 18.33    156.44     66.05      0.00
  163                 10.93    156.12     65.48      0.00
  164                  0.00    156.12     65.48      0.00
  166                  3.02    156.12     68.51      0.00
  167                 16.89    154.78     69.23      0.00
  169                  0.00    154.78     69.23      0.00
  171                 45.63    153.85     68.40      0.00
  173                  0.00    153.83     68.39      0.00
  177                 67.48    153.72     63.14      0.00
  179                  0.00    153.74     63.15      0.00
  181                  0.00    153.71     63.14      0.00
  183                  0.00    153.81     61.88      0.00
  184                  0.00    152.77     59.26      0.00
  185                 29.75    153.51     59.58      0.00
  187                  0.00    154.86     61.68      0.00
  189                125.19    154.74     65.31      0.00
  191                 95.00    157.23     57.29      0.00
  193                 82.72    157.23     60.33      0.00
  195                  0.00    157.21     61.40      0.00
  197                 19.77    158.69     58.79      0.00
  199                138.41    148.18     65.07      0.00
  201                 51.75    147.37     63.81      0.00
  203               4531.00    147.20     62.92      0.00
  204                  0.00    154.38     57.79      0.00
  205                 75.82    148.15     55.09      0.00
  206                  0.00    146.74     63.15      0.00
  207                 80.49    147.22     59.89      0.00
  208                  0.00    146.19     56.41      0.00
  209                  1.01    145.24     63.80      0.00
  211                 10.06    144.92     59.76      0.00
  213                 16.17    144.85     59.73      0.00
  215                106.94    144.70     59.67      0.00
  217                 28.10    144.69     60.09      0.00
  219                 47.93    144.68     60.96      0.00
  225                 26.45    144.68     59.22      0.00
  229                 74.45    144.36     58.00      0.00
  231                 19.12    144.36     60.38      0.00
  237                 18.11    144.36     56.48      0.00
  239                 51.75    144.24     56.86      0.00
  241                  0.00    144.24     56.86      0.00
  243                  5.03    144.24     56.43      0.00
  247                 81.64    144.21     54.69      0.00
  249                  0.00    144.21     54.69      0.00
  251                 28.03    144.18     49.48      0.00
  253                 63.24    144.10     46.84      0.00
  255                 46.85    144.14     50.76      0.00
  257                  0.00    163.02     63.27      0.00
  259                  0.00    163.16     59.87      0.00
  261                  0.00    163.32     70.77      0.00
  263                  0.00    163.73     70.94      0.00
  265                  0.00    155.23     67.26      0.00
  267                  0.00    155.79     58.41      0.00
  269                  0.00    154.73     67.05      0.00
[...]
  206                  0.00    142.79     61.44      0.00
  207                 66.61    142.88     58.01      0.00
  208                  0.00    142.70     54.90      0.00
  209                  0.84    142.54     62.63      0.00
  211                  8.32    142.48     58.70      0.00
  213                 13.38    142.45     58.69      0.00
  215                 88.50    142.34     58.64      0.00
  217                 23.25    142.33     59.07      0.00
  219                 39.67    142.33     59.94      0.00
  225                 21.89    142.33     58.20      0.00
  229                 61.61    142.41     57.16      0.00
  231                 15.82    142.41     59.54      0.00
  237                 14.99    142.47     55.67      0.00
  239                 42.83    142.48     56.10      0.00
  241                  0.00    142.48     56.10      0.00
  243                  4.17    142.48     55.67      0.00
  247                 67.56    142.48     53.94      0.00
  249                  0.00    142.48     53.94      0.00
  251                 23.19    142.50     48.74      0.00
  253                 52.34    142.61     46.19      0.00
  255                 38.77    142.64     50.11      0.00
  257                  0.00    152.19     58.58      0.00
  259                  0.00    151.92     55.00      0.00
  261                  0.00    150.94     65.40      0.00
  263                  0.00    150.84     65.36      0.00
  265                  0.00    149.25     64.67      0.00
  267                  0.00    148.40     55.20      0.00
  269                  0.00    148.51     64.35      0.00
  271                  0.00    148.07     61.56      0.00
  273                  0.00    143.46     58.69      0.00
  275                  0.00    142.83     57.55      0.00
  River            -8165.07    220.00      0.00      0.00  Reservoir
  Lake                 0.00    167.00      0.00      0.00  Reservoir
  1                 -603.46    149.28      7.53      0.00  Tank
  2                 -273.65    143.15     11.55      0.00  Tank
  3                -1724.01    158.89     12.95      0.00  Tank
   
   
  Node Results at 22:00:00 hrs:
  --------------------------------------------------------
                     Demand      Head  Pressure  Chemical
  Node                  gpm        ft       psi      mg/L
  --------------------------------------------------------
  10                   0.00    148.31      0.57      0.00
  15                 360.00    146.42     49.58      0.00
  20                   0.00    159.27     13.12      0.00
  35                1671.00    148.70     59.02      0.00
  40                   0.00    149.20      7.49      0.00
  50                   0.00    142.43     11.24      0.00
  60                   0.00    208.96     90.54      0.00
  601                  0.00    302.11    130.90      0.00
  61                   0.00    302.11    130.90      0.00
  101                235.54    148.31     46.07      0.00
  103                165.17    148.29     45.62      0.00
  105                167.86    149.40     52.39      0.00
  107                 67.75    149.40     55.20      0.00
  109                286.94    148.29     55.46      0.00
  111                176.01    148.85     60.16      0.00
  113                 24.81    148.90     63.65      0.00
  115                 64.60    149.50     58.71      0.00
  117                145.96    152.05     59.99      0.00
  119                218.40    158.29     67.72      0.00
  120                  0.00    156.27     67.71      0.00
  121                 51.62    161.08     70.66      0.00
  123               1840.00    164.47     66.50      0.00
  125                 56.54    160.73     64.88      0.00
  127                 21.90    159.72     44.94      0.00
  129                  0.00    159.71     47.11      0.00
  131                 53.01    159.69     66.60      0.00
  139                  7.30    156.92     54.56      0.00
  141                 12.21    154.98     65.42      0.00
  143                  7.69    150.97     67.36      0.00
  145                 34.26    155.34     66.87      0.00
  147                 10.60    155.65     59.43      0.00
  149                 33.57    155.79     60.57      0.00
  151                179.16    157.28     53.63      0.00
  153                 54.77    157.34     39.49      0.00
  157                 64.22    156.29     62.04      0.00
  159                 51.24    153.53     63.93      0.00
  161                 19.59    151.66     63.98      0.00
  163                 11.68    151.29     63.39      0.00
  164                  0.00    151.29     63.39      0.00
  166                  3.22    151.29     66.42      0.00
  167                 18.05    149.75     67.05      0.00
  169                  0.00    149.75     67.05      0.00
  171                 48.78    148.86     66.23      0.00
  173                  0.00    148.84     66.22      0.00
  177                 72.13    148.72     60.97      0.00
  179                  0.00    148.72     60.98      0.00
  181                  0.00    148.71     60.97      0.00
  183                  0.00    148.72     59.67      0.00
  184                  0.00    147.37     56.92      0.00
  185                 31.81    147.96     57.18      0.00
  187                  0.00    148.60     58.97      0.00
  189                133.82    148.91     62.79      0.00
  191                101.56    148.82     53.65      0.00
  193                 88.42    148.90     56.72      0.00
  195                  0.00    148.96     57.83      0.00
  197                 21.13    148.82     54.52      0.00
  199                147.96    143.62     63.10      0.00
  201                 55.32    142.88     61.87      0.00
  203               4470.00    142.71     60.97      0.00
  204                  0.00    148.38     55.19      0.00
  205                 81.05    143.60     53.12      0.00
  206                  0.00    142.68     61.39      0.00
  207                 86.04    142.88     58.01      0.00
  208                  0.00    142.44     54.79      0.00
  209                  1.08    142.04     62.41      0.00
  211                 10.75    141.90     58.45      0.00
  213                 17.29    141.84     58.43      0.00
  215                114.32    141.67     58.35      0.00
  217                 30.03    141.66     58.78      0.00
  219                 51.24    141.65     59.64      0.00
  225                 28.27    141.65     57.91      0.00
  229                 79.58    141.74     56.87      0.00
  231                 20.44    141.74     59.25      0.00
  237                 19.36    141.82     55.38      0.00
  239                 55.32    141.82     55.82      0.00
  241                  0.00    141.82     55.82      0.00
  243                  5.38    141.82     55.38      0.00
  247                 87.27    141.82     53.65      0.00
  249                  0.00    141.82     53.65      0.00
  251                 29.96    141.82     48.45      0.00
  253                 67.60    141.88     45.88      0.00
  255                 50.08    141.93     49.80      0.00
  257                  0.00    153.68     59.22      0.00
  259                  0.00    153.32     55.60      0.00
  261                  0.00    152.01     65.87      0.00
  263                  0.00    151.88     65.81      0.00
  265                  0.00    150.24     65.10      0.00
  267                  0.00    148.95     55.44      0.00
  269                  0.00    149.23     64.66      0.00
  271                  0.00    148.75     61.85      0.00
  273                  0.00    143.60     58.75      0.00
  275                  0.00    142.89     57.58      0.00
  River           -13191.47    220.00      0.00      0.00  Reservoir
  Lake                 0.00    167.00      0.00      0.00  Reservoir
  1                 -367.08    149.20      7.49      0.00  Tank
  2                 -270.43    142.43     11.24      0.00  Tank
  3                 1708.32    159.27     13.12      0.00  Tank
   
   
  Node Results at 23:00:00 hrs:
  --------------------------------------------------------
                     Demand      Head  Pressure  Chemical
  Node                  gpm        ft       psi      mg/L
  --------------------------------------------------------
  10                   0.00    144.95     -0.89      0.00
  15                 360.00    145.26     49.08      0.00
  20                   0.00    159.92     13.40      0.00
  35                1668.00    147.09     58.32      0.00
  40                   0.00    148.68      7.27      0.00
  50                   0.00    141.33     10.76      0.00
  60                   0.00    208.94     90.53      0.00
  601                  0.00    301.96    130.84      0.00
  61                   0.00    301.96    130.84      0.00
  101                317.22    144.95     44.61      0.00
  103                222.44    144.94     44.17      0.00
  105                226.07    146.36     51.07      0.00
  107                 91.25    146.36     53.89      0.00
  109                386.44    144.97     54.02      0.00
  111                237.04    146.30     59.06      0.00
  113                 33.42    146.52     62.62      0.00
  115                 87.01    146.90     57.58      0.00
  117                196.58    149.73     58.99      0.00
  119                294.14    157.48     67.37      0.00
  120                  0.00    154.95     67.14      0.00
  121                 69.52    160.66     70.48      0.00
  123               1859.00    164.05     66.32      0.00
  125                 76.15    160.49     64.77      0.00
  127                 29.49    160.06     45.09      0.00
  129                  0.00    160.05     47.25      0.00
  131                 71.39    160.02     66.74      0.00
  139                  9.84    156.39     54.33      0.00
  141                 16.45    153.87     64.94      0.00
  143                 10.35    149.80     66.86      0.00
  145                 46.14    154.14     66.36      0.00
  147                 14.28    154.43     58.90      0.00
  149                 45.21    154.55     60.04      0.00
  151                241.28    156.08     53.12      0.00
  153                 73.76    156.15     38.98      0.00
  157                 86.49    155.28     61.61      0.00
  159                 69.00    152.27     63.38      0.00
  161                 26.39    150.24     63.36      0.00
  163                 15.73    149.83     62.75      0.00
  164                  0.00    149.83     62.75      0.00
  166                  4.34    149.83     65.79      0.00
  167                 24.32    148.18     66.37      0.00
  169                  0.00    148.18     66.37      0.00
  171                 65.70    147.24     65.53      0.00
  173                  0.00    147.21     65.52      0.00
  177                 97.14    147.10     60.27      0.00
  179                  0.00    147.11     60.28      0.00
  181                  0.00    147.09     60.27      0.00
  183                  0.00    147.05     58.95      0.00
  184                  0.00    145.36     56.05      0.00
  185                 42.84    145.96     56.31      0.00
  187                  0.00    146.45     58.04      0.00
  189                180.23    147.05     61.98      0.00
  191                136.77    146.48     52.64      0.00
  193                119.09    146.64     55.74      0.00
  195                  0.00    146.71     56.85      0.00
  197                 28.46    146.41     53.47      0.00
  199                199.26    141.62     62.23      0.00
  201                 74.50    140.85     60.99      0.00
  203               4480.00    140.68     60.09      0.00
  204                  0.00    146.28     54.28      0.00
  205                109.15    141.57     52.24      0.00
  206                  0.00    140.56     60.47      0.00
  207                115.88    140.81     57.11      0.00
  208                  0.00    140.28     53.85      0.00
  209                  1.45    139.78     61.43      0.00
  211                 14.48    139.62     57.46      0.00
  213                 23.28    139.52     57.42      0.00
  215                153.96    139.23     57.30      0.00
  217                 40.45    139.20     57.72      0.00
  219                 69.00    139.18     58.57      0.00
  225                 38.08    139.19     56.84      0.00
  229                107.18    139.41     55.86      0.00
  231                 27.52    139.40     58.24      0.00
  237                 26.07    139.59     54.42      0.00
  239                 74.50    139.59     54.85      0.00
  241                  0.00    139.59     54.85      0.00
  243                  7.25    139.59     54.42      0.00
  247                117.53    139.61     52.69      0.00
  249                  0.00    139.61     52.69      0.00
  251                 40.35    139.64     47.50      0.00
  253                 91.05    139.91     45.02      0.00
  255                 67.45    139.99     48.96      0.00
  257                  0.00    151.74     58.38      0.00
  259                  0.00    151.30     54.72      0.00
  261                  0.00    149.68     64.86      0.00
  263                  0.00    149.51     64.78      0.00
  265                  0.00    148.70     64.43      0.00
  267                  0.00    147.00     54.60      0.00
  269                  0.00    147.51     63.92      0.00
  271                  0.00    147.13     61.15      0.00
  273                  0.00    141.57     57.88      0.00
  275                  0.00    140.85     56.70      0.00
  River           -13205.64    220.00      0.00      0.00  Reservoir
  Lake                 0.00    167.00      0.00      0.00  Reservoir
  1                 -701.41    148.68      7.27      0.00  Tank
  2                 -457.74    141.33     10.76      0.00  Tank
  3                  907.45    159.92     13.40      0.00  Tank
   
   
  Node Results at 24:00:00 hrs:
  --------------------------------------------------------
                     Demand      Head  Pressure  Chemical
  Node                  gpm        ft       psi      mg/L
  --------------------------------------------------------
  10                   0.00    147.69      0.30      0.00
  15                 620.00    127.99     41.59      0.00
  20                   0.00    160.27     13.55      0.00
  35                1637.00    147.95     58.69      0.00
  40                   0.00    147.69      6.84      0.00
  50                   0.00    139.46      9.95      0.00
  60                   0.00    209.12     90.61      0.00
  601                  0.00    303.19    131.37      0.00
  61                   0.00    303.19    131.37      0.00
  101                254.53    147.69     45.80      0.00
  103                178.49    147.66     45.35      0.00
  105                181.40    149.00     52.21      0.00
  107                 73.22    148.99     55.02      0.00
  109                310.08    147.66     55.19      0.00
  111                190.20    148.28     59.92      0.00
  113                 26.81    148.32     63.40      0.00
  115                 69.81    149.09     58.53      0.00
  117                157.73    152.19     60.05      0.00
  119                236.01    159.69     68.33      0.00
  120                  0.00    157.27     68.14      0.00
  121                 55.78    163.15     71.56      0.00
  123                  0.00    167.56     67.84      0.00
  125                 61.10    162.58     65.68      0.00
  127                 23.66    160.97     45.48      0.00
  129                  0.00    160.96     47.64      0.00
  131                 57.28    160.94     67.13      0.00
  139                  7.89    155.27     53.85      0.00
  141                 13.20    151.24     63.80      0.00
  143                  8.31    140.42     62.79      0.00
  145                 37.02    152.45     65.62      0.00
  147                 11.46    153.37     58.44      0.00
  149                 36.27    153.76     59.69      0.00
  151                193.60    157.59     53.77      0.00
  153                 59.19    157.69     39.64      0.00
  157                 69.40    157.26     62.46      0.00
  159                 55.37    153.91     64.09      0.00
  161                 21.17    151.64     63.97      0.00
  163                 12.62    151.18     63.34      0.00
  164                  0.00    151.18     63.34      0.00
  166                  3.48    151.18     66.37      0.00
  167                 19.51    149.31     66.86      0.00
  169                  0.00    149.31     66.86      0.00
  171                 52.72    148.23     65.96      0.00
  173                  0.00    148.20     65.95      0.00
  177                 77.95    147.94     60.64      0.00
  179                  0.00    147.94     60.64      0.00
  181                  0.00    147.95     60.64      0.00
  183                  0.00    147.94     59.34      0.00
  184                  0.00    146.58     56.58      0.00
  185                 34.37    147.21     56.85      0.00
  187                  0.00    147.94     58.69      0.00
  189                144.61    148.27     62.51      0.00
  191                109.75    148.22     53.39      0.00
  193                 95.56    148.32     56.47      0.00
  195                  0.00    148.39     57.58      0.00
  197                 22.83    148.23     54.26      0.00
  199                159.89    142.64     62.67      0.00
  201                 59.78    141.86     61.43      0.00
  203               4439.00    141.70     60.53      0.00
  204                  0.00    147.69     54.89      0.00
  205                 87.58    142.59     52.68      0.00
  206                  0.00    141.31     60.79      0.00
  207                 92.98    141.72     57.51      0.00
  208                  0.00    140.83     54.09      0.00
  209                  1.17    140.01     61.53      0.00
  211                 11.62    139.73     57.51      0.00
  213                 18.68    139.65     57.48      0.00
  215                123.53    139.46     57.39      0.00
  217                 32.45    139.44     57.82      0.00
  219                 55.37    139.43     58.68      0.00
  225                 30.55    139.43     56.95      0.00
  229                 86.00    139.34     55.83      0.00
  231                 22.08    139.34     58.21      0.00
  237                 20.92    139.37     54.32      0.00
  239                 59.78    139.32     54.73      0.00
  241                  0.00    139.32     54.73      0.00
  243                  5.82    139.32     54.30      0.00
  247                 94.31    139.31     52.56      0.00
  249                  0.00    139.31     52.56      0.00
  251                 32.37    139.31     47.36      0.00
  253                 73.06    139.26     44.74      0.00
  255                 54.12    139.31     48.66      0.00
  257                  0.00    154.15     59.43      0.00
  259                  0.00    153.72     55.77      0.00
  261                  0.00    152.14     65.92      0.00
  263                  0.00    151.98     65.85      0.00
  265                  0.00    149.90     64.95      0.00
  267                  0.00    148.34     55.18      0.00
  269                  0.00    148.66     64.42      0.00
  271                  0.00    148.03     61.54      0.00
  273                  0.00    142.59     58.32      0.00
  275                  0.00    141.86     57.13      0.00
  River           -13087.22    220.00      0.00      0.00  Reservoir
  Lake                 0.00    167.00      0.00      0.00  Reservoir
  1                  262.50    147.69      6.84      0.00  Tank
  2                 -140.04    139.46      9.95      0.00  Tank
  3                 2184.30    160.27     13.55      0.00  Tank
   
  Analysis ended Thu Jun 27 00:35:09 2019
